1

   Abaqus 2022                                  Date 15-Mar-2024   Time 12:59:08
   For use by INDIAN INSTITUTE OF TECHNOLOGY _ KANPUR under license from Dassault Systemes or its subsidiary.



                         The Abaqus Software is a product of:

                           Dassault Systemes SIMULIA Corp.
                           1301 Atwood Avenue, Suite 101W
                              Johnston, RI 02919, USA
 


                   The Abaqus Software is available only under license
                   from Dassault Systemes or its subsidiary and may be
                   used or reproduced only in accordance with the terms
                   of such license.
 
                          On machine LAPTOP-I68DNRKS 
                          you are authorized to run
                          Abaqus/Standard until 29-Dec-2025

                          Your site id is: 200000000019063 


 
                    For assistance or any other information you may
                    obtain contact information for your local office
                    from the world wide web at:

                      http://www.3ds.com/products/simulia/locations/

 
                * * * * * * * * * * * * * * * * * * * * * * * * * * * * * * 
                *                                                         * 
                *                   *****************                     * 
                *                   *  N O T I C E  *                     * 
                *                   *****************                     * 
                *                                                         * 
                *                                                         * 
                *                       Abaqus 2022                       * 
                *                                                         * 
                *          BUILD ID: 2021_09_15-23.27.30 176069           * 
                *                                                         * 
                *                                                         * 
                *  Please make sure you are using                         * 
                *  release Abaqus 2022 manuals                            * 
                *  plus the notes accompanying this release.              * 
                *                                                         * 
                *                                                         * 
                *                                                         * 
                *                                                         * 
                *                                                         * 
                *   This program may not be used for commercial purposes  * 
                *           without payment of a commercial fee.          * 
                *                                                         * 
                * * * * * * * * * * * * * * * * * * * * * * * * * * * * * * 


 



     PROCESSING PART, INSTANCE, AND ASSEMBLY INFORMATION
   *******************************************************


     END PROCESSING PART, INSTANCE, AND ASSEMBLY INFORMATION
   ***********************************************************




     OPTIONS BEING PROCESSED
   ***************************


  *Heading
  *Node
  *Element, type=S4R
  *Nset, nset=ASSEMBLY_BOX-1_ALL
  *Elset, elset=ASSEMBLY_BOX-1_ALL
  *Node
  *Element, type=B31
  *Nset, nset=ASSEMBLY_BOOM_1-1_BOOM1
  *Nset, nset=ASSEMBLY_BOOM_1-1_SET-4
  *Elset, elset=ASSEMBLY_BOOM_1-1_BOOM1
  *Elset, elset=ASSEMBLY_BOOM_1-1_SET-4
  *Node
  *Element, type=B31
  *Nset, nset=ASSEMBLY_BOOM_1-2_BOOM1
  *Nset, nset=ASSEMBLY_BOOM_1-2_SET-4
  *Elset, elset=ASSEMBLY_BOOM_1-2_BOOM1
  *Elset, elset=ASSEMBLY_BOOM_1-2_SET-4
  *Node
  *Element, type=B31
  *Nset, nset=ASSEMBLY_BOOM_2-1_BOOM_2
  *Nset, nset=ASSEMBLY_BOOM_2-1_SET-5
  *Elset, elset=ASSEMBLY_BOOM_2-1_BOOM_2
  *Elset, elset=ASSEMBLY_BOOM_2-1_SET-5
  *Node
  *Element, type=B31
  *Nset, nset=ASSEMBLY_BOOM_2-2_BOOM_2
  *Nset, nset=ASSEMBLY_BOOM_2-2_SET-5
  *Elset, elset=ASSEMBLY_BOOM_2-2_BOOM_2
  *Elset, elset=ASSEMBLY_BOOM_2-2_SET-5
  *Node
  *Element, type=B31
  *Nset, nset=ASSEMBLY_BOOM_MID-1_BOOMMID
  *Nset, nset=ASSEMBLY_BOOM_MID-1_BOOM_MID
  *Elset, elset=ASSEMBLY_BOOM_MID-1_BOOMMID
  *Elset, elset=ASSEMBLY_BOOM_MID-1_BOOM_MID
  *Node
  *Element, type=B31
  *Nset, nset=ASSEMBLY_BOOM_MID-2_BOOMMID
  *Nset, nset=ASSEMBLY_BOOM_MID-2_BOOM_MID
  *Elset, elset=ASSEMBLY_BOOM_MID-2_BOOMMID
  *Elset, elset=ASSEMBLY_BOOM_MID-2_BOOM_MID
  *Nset, nset=ASSEMBLY_BC_FORCES
  *Nset, nset=ASSEMBLY_BOOM1
  *Nset, nset=ASSEMBLY_F1
  *Nset, nset=ASSEMBLY_F10
  *Nset, nset=ASSEMBLY_F11
  *Nset, nset=ASSEMBLY_F2
  *Nset, nset=ASSEMBLY_F3
  *Nset, nset=ASSEMBLY_F4
  *Nset, nset=ASSEMBLY_F5
  *Nset, nset=ASSEMBLY_F6
  *Nset, nset=ASSEMBLY_F7
  *Nset, nset=ASSEMBLY_F8
  *Nset, nset=ASSEMBLY_F9
  *Nset, nset=ASSEMBLY_SET-4
  *Nset, nset=ASSEMBLY_SET-5
  *Nset, nset=ASSEMBLY_SURFACE
  *Elset, elset=ASSEMBLY_BC_FORCES
  *Elset, elset=ASSEMBLY_BOOM1
  *Elset, elset=ASSEMBLY_SET-4
  *Elset, elset=ASSEMBLY_SURFACE
  *Elset, elset=ASSEMBLY__M_SURF-1_SPOS
  *Elset, elset=ASSEMBLY__M_SURF-2_SPOS
  *Elset, elset=ASSEMBLY__M_SURF-3_SPOS
  *Elset, elset=ASSEMBLY__M_SURF-4_SPOS
  *material, name=ALUMINIUM_BEAM
  *elastic
  *material, name=ALUMINIUM_BOX
  *elastic
  *orientation, name=ASSEMBLY_BOOM_1-1_ORI-2
  *orientation, name=ASSEMBLY_BOOM_1-2_ORI-2
  *orientation, name=ASSEMBLY_BOOM_2-1_ORI-3
  *orientation, name=ASSEMBLY_BOOM_2-2_ORI-3
  *shellsection, elset=ASSEMBLY_BOX-1_ALL, material=ALUMINIUM_BOX
  *beamsection, elset=ASSEMBLY_BOOM_1-1_BOOM1, temperature=GRADIENTS, material=ALUMINIUM_BEAM, section=CIRCULAR
  *beamsection, elset=ASSEMBLY_BOOM_1-2_BOOM1, temperature=GRADIENTS, material=ALUMINIUM_BEAM, section=CIRCULAR
  *beamsection, elset=ASSEMBLY_BOOM_2-1_BOOM_2, temperature=GRADIENTS, material=ALUMINIUM_BEAM, section=CIRCULAR
  *beamsection, elset=ASSEMBLY_BOOM_2-2_BOOM_2, temperature=GRADIENTS, material=ALUMINIUM_BEAM, section=CIRCULAR
  *beamsection, elset=ASSEMBLY_BOOM_MID-1_BOOM_MID, temperature=GRADIENTS, material=ALUMINIUM_BEAM, section=CIRCULAR
  *beamsection, elset=ASSEMBLY_BOOM_MID-2_BOOM_MID, temperature=GRADIENTS, material=ALUMINIUM_BEAM, section=CIRCULAR
  *shellsection, elset=ASSEMBLY_BOX-1_ALL, material=ALUMINIUM_BOX
  *tie, name=ASSEMBLY_CONSTRAINT-1, adjust=YES
  *tie, name=ASSEMBLY_CONSTRAINT-2, adjust=YES
  *tie, name=ASSEMBLY_CONSTRAINT-3, adjust=YES
  *tie, name=ASSEMBLY_CONSTRAINT-4, adjust=YES
  *tie, name=ASSEMBLY_CONSTRAINT-5, adjust=YES
  *tie, name=ASSEMBLY_CONSTRAINT-6, adjust=YES
  *tie, name=ASSEMBLY_CONSTRAINT-7, adjust=YES
  *tie, name=ASSEMBLY_CONSTRAINT-8, adjust=YES
  *tie, name=ASSEMBLY_CONSTRAINT-9, adjust=YES
  *tie, name=ASSEMBLY_CONSTRAINT-10, adjust=YES
  *surface, type=ELEMENT, name=ASSEMBLY_M_SURF-1
  *surface, type=ELEMENT, name=ASSEMBLY_M_SURF-2
  *surface, type=ELEMENT, name=ASSEMBLY_M_SURF-3
  *surface, type=ELEMENT, name=ASSEMBLY_M_SURF-4
  *surface, type=NODE, name=ASSEMBLY_BOOM1_CNS_
  *surface, type=NODE, name=ASSEMBLY_BOOM_2-1_BOOM_2_CNS_
  *surface, type=NODE, name=ASSEMBLY_BOOM_2-2_BOOM_2_CNS_
  *surface, type=NODE, name=ASSEMBLY_BOOM_1-2_BOOM1_CNS_
  *surface, type=NODE, name=ASSEMBLY_BOOM_1-1_BOOM1_CNS_
  *surface, type=NODE, name=ASSEMBLY_BOOM_MID-1_BOOM_MID_CNS_
  *surface, type=NODE, name=ASSEMBLY_BOOM_MID-2_BOOM_MID_CNS_
  *tie, name=ASSEMBLY_CONSTRAINT-1, adjust=YES
  *tie, name=ASSEMBLY_CONSTRAINT-2, adjust=YES
  *tie, name=ASSEMBLY_CONSTRAINT-3, adjust=YES
  *tie, name=ASSEMBLY_CONSTRAINT-4, adjust=YES
  *tie, name=ASSEMBLY_CONSTRAINT-5, adjust=YES
  *tie, name=ASSEMBLY_CONSTRAINT-6, adjust=YES
  *tie, name=ASSEMBLY_CONSTRAINT-7, adjust=YES
  *tie, name=ASSEMBLY_CONSTRAINT-8, adjust=YES
  *tie, name=ASSEMBLY_CONSTRAINT-9, adjust=YES
  *tie, name=ASSEMBLY_CONSTRAINT-10, adjust=YES
  *surface, type=ELEMENT, name=ASSEMBLY_M_SURF-1
  *surface, type=ELEMENT, name=ASSEMBLY_M_SURF-2
  *surface, type=ELEMENT, name=ASSEMBLY_M_SURF-3
  *surface, type=ELEMENT, name=ASSEMBLY_M_SURF-4
  *surface, type=NODE, name=ASSEMBLY_BOOM1_CNS_
  *surface, type=NODE, name=ASSEMBLY_BOOM_2-1_BOOM_2_CNS_
  *surface, type=NODE, name=ASSEMBLY_BOOM_2-2_BOOM_2_CNS_
  *surface, type=NODE, name=ASSEMBLY_BOOM_1-2_BOOM1_CNS_
  *surface, type=NODE, name=ASSEMBLY_BOOM_1-1_BOOM1_CNS_
  *surface, type=NODE, name=ASSEMBLY_BOOM_MID-1_BOOM_MID_CNS_
  *surface, type=NODE, name=ASSEMBLY_BOOM_MID-2_BOOM_MID_CNS_
  *surface, type=ELEMENT, name=ASSEMBLY_M_SURF-1
  *surface, type=ELEMENT, name=ASSEMBLY_M_SURF-2
  *surface, type=ELEMENT, name=ASSEMBLY_M_SURF-3
  *surface, type=ELEMENT, name=ASSEMBLY_M_SURF-4
  *surface, type=NODE, name=ASSEMBLY_BOOM1_CNS_
  *surface, type=NODE, name=ASSEMBLY_BOOM_2-1_BOOM_2_CNS_
  *surface, type=NODE, name=ASSEMBLY_BOOM_2-2_BOOM_2_CNS_
  *surface, type=NODE, name=ASSEMBLY_BOOM_1-2_BOOM1_CNS_
  *surface, type=NODE, name=ASSEMBLY_BOOM_1-1_BOOM1_CNS_
  *surface, type=NODE, name=ASSEMBLY_BOOM_MID-1_BOOM_MID_CNS_
  *surface, type=NODE, name=ASSEMBLY_BOOM_MID-2_BOOM_MID_CNS_
  *tie, name=ASSEMBLY_CONSTRAINT-1, adjust=YES
  *tie, name=ASSEMBLY_CONSTRAINT-2, adjust=YES
  *tie, name=ASSEMBLY_CONSTRAINT-3, adjust=YES
  *tie, name=ASSEMBLY_CONSTRAINT-4, adjust=YES
  *tie, name=ASSEMBLY_CONSTRAINT-5, adjust=YES
  *tie, name=ASSEMBLY_CONSTRAINT-6, adjust=YES
  *tie, name=ASSEMBLY_CONSTRAINT-7, adjust=YES
  *tie, name=ASSEMBLY_CONSTRAINT-8, adjust=YES
  *tie, name=ASSEMBLY_CONSTRAINT-9, adjust=YES
  *tie, name=ASSEMBLY_CONSTRAINT-10, adjust=YES
  *tie, name=ASSEMBLY_CONSTRAINT-1, adjust=YES
  *tie, name=ASSEMBLY_CONSTRAINT-2, adjust=YES
  *tie, name=ASSEMBLY_CONSTRAINT-3, adjust=YES
  *tie, name=ASSEMBLY_CONSTRAINT-4, adjust=YES
  *tie, name=ASSEMBLY_CONSTRAINT-5, adjust=YES
  *tie, name=ASSEMBLY_CONSTRAINT-6, adjust=YES
  *tie, name=ASSEMBLY_CONSTRAINT-7, adjust=YES
  *tie, name=ASSEMBLY_CONSTRAINT-8, adjust=YES
  *tie, name=ASSEMBLY_CONSTRAINT-9, adjust=YES
  *tie, name=ASSEMBLY_CONSTRAINT-10, adjust=YES
  *boundary
  *boundary
  *tie, name=ASSEMBLY_CONSTRAINT-1, adjust=YES

 ***WARNING: SECONDARY SURFACE ASSEMBLY_BOOM1_CNS_ IS A NODE-BASED SURFACE USED 
             WITH SURFACE TO SURFACE APPROACH.  IN ORDER TO OBTAIN IMPROVED 
             STRESS ACCURACY WITH THIS APPROACH, AN ELEMENT-BASED SURFACE 
             SHOULD BE USED INSTEAD.

 ***WARNING: FOR *TIE PAIR (ASSEMBLY_BOOM1_CNS_-ASSEMBLY_M_SURF-1), ADJUSTMENT 
             WAS SPECIFIED BUT NO NODE WAS ADJUSTED MORE THAN THE ADJUSTMENT 
             DISTANCE = 2.22000E-16.
  *tie, name=ASSEMBLY_CONSTRAINT-2, adjust=YES

 ***WARNING: SECONDARY SURFACE ASSEMBLY_BOOM_2-1_BOOM_2_CNS_ IS A NODE-BASED 
             SURFACE USED WITH SURFACE TO SURFACE APPROACH.  IN ORDER TO OBTAIN 
             IMPROVED STRESS ACCURACY WITH THIS APPROACH, AN ELEMENT-BASED 
             SURFACE SHOULD BE USED INSTEAD.

 ***WARNING: FOR *TIE PAIR (ASSEMBLY_BOOM_2-1_BOOM_2_CNS_-ASSEMBLY_M_SURF-1), 
             ADJUSTMENT WAS SPECIFIED BUT NO NODE WAS ADJUSTED MORE THAN THE 
             ADJUSTMENT DISTANCE = 2.22000E-16.
  *tie, name=ASSEMBLY_CONSTRAINT-3, adjust=YES

 ***WARNING: SECONDARY SURFACE ASSEMBLY_BOOM_2-2_BOOM_2_CNS_ IS A NODE-BASED 
             SURFACE USED WITH SURFACE TO SURFACE APPROACH.  IN ORDER TO OBTAIN 
             IMPROVED STRESS ACCURACY WITH THIS APPROACH, AN ELEMENT-BASED 
             SURFACE SHOULD BE USED INSTEAD.

 ***WARNING: FOR *TIE PAIR (ASSEMBLY_BOOM_2-2_BOOM_2_CNS_-ASSEMBLY_M_SURF-2), 
             ADJUSTMENT WAS SPECIFIED BUT NO NODE WAS ADJUSTED MORE THAN THE 
             ADJUSTMENT DISTANCE = 2.22000E-16.
  *tie, name=ASSEMBLY_CONSTRAINT-4, adjust=YES

 ***WARNING: SECONDARY SURFACE ASSEMBLY_BOOM_2-1_BOOM_2_CNS_ IS A NODE-BASED 
             SURFACE USED WITH SURFACE TO SURFACE APPROACH.  IN ORDER TO OBTAIN 
             IMPROVED STRESS ACCURACY WITH THIS APPROACH, AN ELEMENT-BASED 
             SURFACE SHOULD BE USED INSTEAD.

 ***WARNING: FOR *TIE PAIR (ASSEMBLY_BOOM_2-1_BOOM_2_CNS_-ASSEMBLY_M_SURF-2), 
             ADJUSTMENT WAS SPECIFIED BUT NO NODE WAS ADJUSTED MORE THAN THE 
             ADJUSTMENT DISTANCE = 2.22000E-16.
  *tie, name=ASSEMBLY_CONSTRAINT-5, adjust=YES

 ***WARNING: SECONDARY SURFACE ASSEMBLY_BOOM_2-2_BOOM_2_CNS_ IS A NODE-BASED 
             SURFACE USED WITH SURFACE TO SURFACE APPROACH.  IN ORDER TO OBTAIN 
             IMPROVED STRESS ACCURACY WITH THIS APPROACH, AN ELEMENT-BASED 
             SURFACE SHOULD BE USED INSTEAD.

 ***WARNING: FOR *TIE PAIR (ASSEMBLY_BOOM_2-2_BOOM_2_CNS_-ASSEMBLY_M_SURF-3), 
             ADJUSTMENT WAS SPECIFIED BUT NO NODE WAS ADJUSTED MORE THAN THE 
             ADJUSTMENT DISTANCE = 2.22000E-16.
  *tie, name=ASSEMBLY_CONSTRAINT-6, adjust=YES

 ***WARNING: SECONDARY SURFACE ASSEMBLY_BOOM_1-2_BOOM1_CNS_ IS A NODE-BASED 
             SURFACE USED WITH SURFACE TO SURFACE APPROACH.  IN ORDER TO OBTAIN 
             IMPROVED STRESS ACCURACY WITH THIS APPROACH, AN ELEMENT-BASED 
             SURFACE SHOULD BE USED INSTEAD.

 ***WARNING: FOR *TIE PAIR (ASSEMBLY_BOOM_1-2_BOOM1_CNS_-ASSEMBLY_M_SURF-3), 
             ADJUSTMENT WAS SPECIFIED BUT NO NODE WAS ADJUSTED MORE THAN THE 
             ADJUSTMENT DISTANCE = 2.22000E-16.
  *tie, name=ASSEMBLY_CONSTRAINT-7, adjust=YES

 ***WARNING: SECONDARY SURFACE ASSEMBLY_BOOM_1-2_BOOM1_CNS_ IS A NODE-BASED 
             SURFACE USED WITH SURFACE TO SURFACE APPROACH.  IN ORDER TO OBTAIN 
             IMPROVED STRESS ACCURACY WITH THIS APPROACH, AN ELEMENT-BASED 
             SURFACE SHOULD BE USED INSTEAD.

 ***WARNING: FOR *TIE PAIR (ASSEMBLY_BOOM_1-2_BOOM1_CNS_-ASSEMBLY_M_SURF-4), 
             ADJUSTMENT WAS SPECIFIED BUT NO NODE WAS ADJUSTED MORE THAN THE 
             ADJUSTMENT DISTANCE = 2.22000E-16.
  *tie, name=ASSEMBLY_CONSTRAINT-8, adjust=YES

 ***WARNING: SECONDARY SURFACE ASSEMBLY_BOOM_1-1_BOOM1_CNS_ IS A NODE-BASED 
             SURFACE USED WITH SURFACE TO SURFACE APPROACH.  IN ORDER TO OBTAIN 
             IMPROVED STRESS ACCURACY WITH THIS APPROACH, AN ELEMENT-BASED 
             SURFACE SHOULD BE USED INSTEAD.

 ***WARNING: FOR *TIE PAIR (ASSEMBLY_BOOM_1-1_BOOM1_CNS_-ASSEMBLY_M_SURF-4), 
             ADJUSTMENT WAS SPECIFIED BUT NO NODE WAS ADJUSTED MORE THAN THE 
             ADJUSTMENT DISTANCE = 2.22000E-16.
  *tie, name=ASSEMBLY_CONSTRAINT-9, adjust=YES

 ***WARNING: SECONDARY SURFACE ASSEMBLY_BOOM_MID-1_BOOM_MID_CNS_ IS A 
             NODE-BASED SURFACE USED WITH SURFACE TO SURFACE APPROACH.  IN 
             ORDER TO OBTAIN IMPROVED STRESS ACCURACY WITH THIS APPROACH, AN 
             ELEMENT-BASED SURFACE SHOULD BE USED INSTEAD.

 ***WARNING: FOR *TIE PAIR 
             (ASSEMBLY_BOOM_MID-1_BOOM_MID_CNS_-ASSEMBLY_M_SURF-1), ADJUSTMENT 
             WAS SPECIFIED BUT NO NODE WAS ADJUSTED MORE THAN THE ADJUSTMENT 
             DISTANCE = 2.22000E-16.
  *tie, name=ASSEMBLY_CONSTRAINT-10, adjust=YES

 ***WARNING: SECONDARY SURFACE ASSEMBLY_BOOM_MID-2_BOOM_MID_CNS_ IS A 
             NODE-BASED SURFACE USED WITH SURFACE TO SURFACE APPROACH.  IN 
             ORDER TO OBTAIN IMPROVED STRESS ACCURACY WITH THIS APPROACH, AN 
             ELEMENT-BASED SURFACE SHOULD BE USED INSTEAD.

 ***WARNING: FOR *TIE PAIR 
             (ASSEMBLY_BOOM_MID-2_BOOM_MID_CNS_-ASSEMBLY_M_SURF-3), ADJUSTMENT 
             WAS SPECIFIED BUT NO NODE WAS ADJUSTED MORE THAN THE ADJUSTMENT 
             DISTANCE = 2.22000E-16.
  *tie, name=ASSEMBLY_CONSTRAINT-1, adjust=YES
  *tie, name=ASSEMBLY_CONSTRAINT-2, adjust=YES
  *tie, name=ASSEMBLY_CONSTRAINT-3, adjust=YES
  *tie, name=ASSEMBLY_CONSTRAINT-4, adjust=YES
  *tie, name=ASSEMBLY_CONSTRAINT-5, adjust=YES
  *tie, name=ASSEMBLY_CONSTRAINT-6, adjust=YES
  *tie, name=ASSEMBLY_CONSTRAINT-7, adjust=YES
  *tie, name=ASSEMBLY_CONSTRAINT-8, adjust=YES
  *tie, name=ASSEMBLY_CONSTRAINT-9, adjust=YES
  *tie, name=ASSEMBLY_CONSTRAINT-10, adjust=YES
  *tie, name=ASSEMBLY_CONSTRAINT-1, adjust=YES
  *tie, name=ASSEMBLY_CONSTRAINT-2, adjust=YES
  *tie, name=ASSEMBLY_CONSTRAINT-3, adjust=YES
  *tie, name=ASSEMBLY_CONSTRAINT-4, adjust=YES
  *tie, name=ASSEMBLY_CONSTRAINT-5, adjust=YES
  *tie, name=ASSEMBLY_CONSTRAINT-6, adjust=YES
  *tie, name=ASSEMBLY_CONSTRAINT-7, adjust=YES
  *tie, name=ASSEMBLY_CONSTRAINT-8, adjust=YES
  *tie, name=ASSEMBLY_CONSTRAINT-9, adjust=YES
  *tie, name=ASSEMBLY_CONSTRAINT-10, adjust=YES

 ***WARNING: OVERCONSTRAINT CHECKS: NODE 1 INSTANCE BOOM_1-1 IS USED MORE THAN 
             ONCE AS A SECONDARY NODE IN THE *TIE KEYWORD.  THE CONSTRAINT 
             BETWEEN THIS NODE AND THE MAIN SURFACE WITH NODE 68 INSTANCE BOX-1 
             IS REMOVED.  CHECK IF THIS IS ACCEPTABLE.

 ***WARNING: OVERCONSTRAINT CHECKS: NODE 1 INSTANCE BOOM_1-1 IS USED MORE THAN 
             ONCE AS A SECONDARY NODE IN THE *TIE KEYWORD.  THE CONSTRAINT 
             BETWEEN THIS NODE AND THE MAIN SURFACE WITH NODE 68 INSTANCE BOX-1 
             IS REMOVED.  CHECK IF THIS IS ACCEPTABLE.

 ***WARNING: OVERCONSTRAINT CHECKS: NODE 2 INSTANCE BOOM_1-1 IS USED MORE THAN 
             ONCE AS A SECONDARY NODE IN THE *TIE KEYWORD.  THE CONSTRAINT 
             BETWEEN THIS NODE AND THE MAIN SURFACE WITH NODE 68 INSTANCE BOX-1 
             IS REMOVED.  CHECK IF THIS IS ACCEPTABLE.

 ***WARNING: OVERCONSTRAINT CHECKS: NODE 2 INSTANCE BOOM_1-1 IS USED MORE THAN 
             ONCE AS A SECONDARY NODE IN THE *TIE KEYWORD.  THE CONSTRAINT 
             BETWEEN THIS NODE AND THE MAIN SURFACE WITH NODE 68 INSTANCE BOX-1 
             IS REMOVED.  CHECK IF THIS IS ACCEPTABLE.

 ***WARNING: OVERCONSTRAINT CHECKS: NODE 3 INSTANCE BOOM_1-1 IS USED MORE THAN 
             ONCE AS A SECONDARY NODE IN THE *TIE KEYWORD.  THE CONSTRAINT 
             BETWEEN THIS NODE AND THE MAIN SURFACE WITH NODE 2642 INSTANCE 
             BOX-1 IS REMOVED.  CHECK IF THIS IS ACCEPTABLE.

 ***WARNING: OVERCONSTRAINT CHECKS: NODE 3 INSTANCE BOOM_1-1 IS USED MORE THAN 
             ONCE AS A SECONDARY NODE IN THE *TIE KEYWORD.  THE CONSTRAINT 
             BETWEEN THIS NODE AND THE MAIN SURFACE WITH NODE 2642 INSTANCE 
             BOX-1 IS REMOVED.  CHECK IF THIS IS ACCEPTABLE.

 ***WARNING: OVERCONSTRAINT CHECKS: NODE 4 INSTANCE BOOM_1-1 IS USED MORE THAN 
             ONCE AS A SECONDARY NODE IN THE *TIE KEYWORD.  THE CONSTRAINT 
             BETWEEN THIS NODE AND THE MAIN SURFACE WITH NODE 2642 INSTANCE 
             BOX-1 IS REMOVED.  CHECK IF THIS IS ACCEPTABLE.

 ***WARNING: OVERCONSTRAINT CHECKS: NODE 4 INSTANCE BOOM_1-1 IS USED MORE THAN 
             ONCE AS A SECONDARY NODE IN THE *TIE KEYWORD.  THE CONSTRAINT 
             BETWEEN THIS NODE AND THE MAIN SURFACE WITH NODE 2642 INSTANCE 
             BOX-1 IS REMOVED.  CHECK IF THIS IS ACCEPTABLE.

 ***WARNING: OVERCONSTRAINT CHECKS: NODE 5 INSTANCE BOOM_1-1 IS USED MORE THAN 
             ONCE AS A SECONDARY NODE IN THE *TIE KEYWORD.  THE CONSTRAINT 
             BETWEEN THIS NODE AND THE MAIN SURFACE WITH NODE 2643 INSTANCE 
             BOX-1 IS REMOVED.  CHECK IF THIS IS ACCEPTABLE.

 ***WARNING: OVERCONSTRAINT CHECKS: NODE 5 INSTANCE BOOM_1-1 IS USED MORE THAN 
             ONCE AS A SECONDARY NODE IN THE *TIE KEYWORD.  THE CONSTRAINT 
             BETWEEN THIS NODE AND THE MAIN SURFACE WITH NODE 2643 INSTANCE 
             BOX-1 IS REMOVED.  CHECK IF THIS IS ACCEPTABLE.

 ***WARNING: OVERCONSTRAINT CHECKS: NODE 6 INSTANCE BOOM_1-1 IS USED MORE THAN 
             ONCE AS A SECONDARY NODE IN THE *TIE KEYWORD.  THE CONSTRAINT 
             BETWEEN THIS NODE AND THE MAIN SURFACE WITH NODE 2644 INSTANCE 
             BOX-1 IS REMOVED.  CHECK IF THIS IS ACCEPTABLE.

 ***WARNING: OVERCONSTRAINT CHECKS: NODE 6 INSTANCE BOOM_1-1 IS USED MORE THAN 
             ONCE AS A SECONDARY NODE IN THE *TIE KEYWORD.  THE CONSTRAINT 
             BETWEEN THIS NODE AND THE MAIN SURFACE WITH NODE 2644 INSTANCE 
             BOX-1 IS REMOVED.  CHECK IF THIS IS ACCEPTABLE.

 ***WARNING: OVERCONSTRAINT CHECKS: NODE 7 INSTANCE BOOM_1-1 IS USED MORE THAN 
             ONCE AS A SECONDARY NODE IN THE *TIE KEYWORD.  THE CONSTRAINT 
             BETWEEN THIS NODE AND THE MAIN SURFACE WITH NODE 2644 INSTANCE 
             BOX-1 IS REMOVED.  CHECK IF THIS IS ACCEPTABLE.

 ***WARNING: OVERCONSTRAINT CHECKS: NODE 7 INSTANCE BOOM_1-1 IS USED MORE THAN 
             ONCE AS A SECONDARY NODE IN THE *TIE KEYWORD.  THE CONSTRAINT 
             BETWEEN THIS NODE AND THE MAIN SURFACE WITH NODE 2644 INSTANCE 
             BOX-1 IS REMOVED.  CHECK IF THIS IS ACCEPTABLE.

 ***WARNING: OVERCONSTRAINT CHECKS: NODE 8 INSTANCE BOOM_1-1 IS USED MORE THAN 
             ONCE AS A SECONDARY NODE IN THE *TIE KEYWORD.  THE CONSTRAINT 
             BETWEEN THIS NODE AND THE MAIN SURFACE WITH NODE 2645 INSTANCE 
             BOX-1 IS REMOVED.  CHECK IF THIS IS ACCEPTABLE.

 ***WARNING: OVERCONSTRAINT CHECKS: NODE 8 INSTANCE BOOM_1-1 IS USED MORE THAN 
             ONCE AS A SECONDARY NODE IN THE *TIE KEYWORD.  THE CONSTRAINT 
             BETWEEN THIS NODE AND THE MAIN SURFACE WITH NODE 2645 INSTANCE 
             BOX-1 IS REMOVED.  CHECK IF THIS IS ACCEPTABLE.

 ***WARNING: OVERCONSTRAINT CHECKS: NODE 9 INSTANCE BOOM_1-1 IS USED MORE THAN 
             ONCE AS A SECONDARY NODE IN THE *TIE KEYWORD.  THE CONSTRAINT 
             BETWEEN THIS NODE AND THE MAIN SURFACE WITH NODE 2646 INSTANCE 
             BOX-1 IS REMOVED.  CHECK IF THIS IS ACCEPTABLE.

 ***WARNING: OVERCONSTRAINT CHECKS: NODE 9 INSTANCE BOOM_1-1 IS USED MORE THAN 
             ONCE AS A SECONDARY NODE IN THE *TIE KEYWORD.  THE CONSTRAINT 
             BETWEEN THIS NODE AND THE MAIN SURFACE WITH NODE 2646 INSTANCE 
             BOX-1 IS REMOVED.  CHECK IF THIS IS ACCEPTABLE.

 ***WARNING: OVERCONSTRAINT CHECKS: NODE 10 INSTANCE BOOM_1-1 IS USED MORE THAN 
             ONCE AS A SECONDARY NODE IN THE *TIE KEYWORD.  THE CONSTRAINT 
             BETWEEN THIS NODE AND THE MAIN SURFACE WITH NODE 2646 INSTANCE 
             BOX-1 IS REMOVED.  CHECK IF THIS IS ACCEPTABLE.

 ***WARNING: OVERCONSTRAINT CHECKS: NODE 10 INSTANCE BOOM_1-1 IS USED MORE THAN 
             ONCE AS A SECONDARY NODE IN THE *TIE KEYWORD.  THE CONSTRAINT 
             BETWEEN THIS NODE AND THE MAIN SURFACE WITH NODE 2646 INSTANCE 
             BOX-1 IS REMOVED.  CHECK IF THIS IS ACCEPTABLE.

 ***WARNING: OVERCONSTRAINT CHECKS: NODE 11 INSTANCE BOOM_1-1 IS USED MORE THAN 
             ONCE AS A SECONDARY NODE IN THE *TIE KEYWORD.  THE CONSTRAINT 
             BETWEEN THIS NODE AND THE MAIN SURFACE WITH NODE 2647 INSTANCE 
             BOX-1 IS REMOVED.  CHECK IF THIS IS ACCEPTABLE.

 ***WARNING: OVERCONSTRAINT CHECKS: NODE 11 INSTANCE BOOM_1-1 IS USED MORE THAN 
             ONCE AS A SECONDARY NODE IN THE *TIE KEYWORD.  THE CONSTRAINT 
             BETWEEN THIS NODE AND THE MAIN SURFACE WITH NODE 2647 INSTANCE 
             BOX-1 IS REMOVED.  CHECK IF THIS IS ACCEPTABLE.

 ***WARNING: OVERCONSTRAINT CHECKS: NODE 12 INSTANCE BOOM_1-1 IS USED MORE THAN 
             ONCE AS A SECONDARY NODE IN THE *TIE KEYWORD.  THE CONSTRAINT 
             BETWEEN THIS NODE AND THE MAIN SURFACE WITH NODE 2648 INSTANCE 
             BOX-1 IS REMOVED.  CHECK IF THIS IS ACCEPTABLE.

 ***WARNING: OVERCONSTRAINT CHECKS: NODE 12 INSTANCE BOOM_1-1 IS USED MORE THAN 
             ONCE AS A SECONDARY NODE IN THE *TIE KEYWORD.  THE CONSTRAINT 
             BETWEEN THIS NODE AND THE MAIN SURFACE WITH NODE 2648 INSTANCE 
             BOX-1 IS REMOVED.  CHECK IF THIS IS ACCEPTABLE.

 ***WARNING: OVERCONSTRAINT CHECKS: NODE 13 INSTANCE BOOM_1-1 IS USED MORE THAN 
             ONCE AS A SECONDARY NODE IN THE *TIE KEYWORD.  THE CONSTRAINT 
             BETWEEN THIS NODE AND THE MAIN SURFACE WITH NODE 2648 INSTANCE 
             BOX-1 IS REMOVED.  CHECK IF THIS IS ACCEPTABLE.

 ***WARNING: OVERCONSTRAINT CHECKS: NODE 13 INSTANCE BOOM_1-1 IS USED MORE THAN 
             ONCE AS A SECONDARY NODE IN THE *TIE KEYWORD.  THE CONSTRAINT 
             BETWEEN THIS NODE AND THE MAIN SURFACE WITH NODE 2648 INSTANCE 
             BOX-1 IS REMOVED.  CHECK IF THIS IS ACCEPTABLE.

 ***WARNING: OVERCONSTRAINT CHECKS: NODE 14 INSTANCE BOOM_1-1 IS USED MORE THAN 
             ONCE AS A SECONDARY NODE IN THE *TIE KEYWORD.  THE CONSTRAINT 
             BETWEEN THIS NODE AND THE MAIN SURFACE WITH NODE 2649 INSTANCE 
             BOX-1 IS REMOVED.  CHECK IF THIS IS ACCEPTABLE.

 ***WARNING: OVERCONSTRAINT CHECKS: NODE 14 INSTANCE BOOM_1-1 IS USED MORE THAN 
             ONCE AS A SECONDARY NODE IN THE *TIE KEYWORD.  THE CONSTRAINT 
             BETWEEN THIS NODE AND THE MAIN SURFACE WITH NODE 2649 INSTANCE 
             BOX-1 IS REMOVED.  CHECK IF THIS IS ACCEPTABLE.

 ***WARNING: OVERCONSTRAINT CHECKS: NODE 15 INSTANCE BOOM_1-1 IS USED MORE THAN 
             ONCE AS A SECONDARY NODE IN THE *TIE KEYWORD.  THE CONSTRAINT 
             BETWEEN THIS NODE AND THE MAIN SURFACE WITH NODE 2649 INSTANCE 
             BOX-1 IS REMOVED.  CHECK IF THIS IS ACCEPTABLE.

 ***WARNING: OVERCONSTRAINT CHECKS: NODE 15 INSTANCE BOOM_1-1 IS USED MORE THAN 
             ONCE AS A SECONDARY NODE IN THE *TIE KEYWORD.  THE CONSTRAINT 
             BETWEEN THIS NODE AND THE MAIN SURFACE WITH NODE 2649 INSTANCE 
             BOX-1 IS REMOVED.  CHECK IF THIS IS ACCEPTABLE.

 ***WARNING: OVERCONSTRAINT CHECKS: NODE 16 INSTANCE BOOM_1-1 IS USED MORE THAN 
             ONCE AS A SECONDARY NODE IN THE *TIE KEYWORD.  THE CONSTRAINT 
             BETWEEN THIS NODE AND THE MAIN SURFACE WITH NODE 2650 INSTANCE 
             BOX-1 IS REMOVED.  CHECK IF THIS IS ACCEPTABLE.

 ***WARNING: OVERCONSTRAINT CHECKS: NODE 16 INSTANCE BOOM_1-1 IS USED MORE THAN 
             ONCE AS A SECONDARY NODE IN THE *TIE KEYWORD.  THE CONSTRAINT 
             BETWEEN THIS NODE AND THE MAIN SURFACE WITH NODE 2650 INSTANCE 
             BOX-1 IS REMOVED.  CHECK IF THIS IS ACCEPTABLE.

 ***WARNING: OVERCONSTRAINT CHECKS: NODE 17 INSTANCE BOOM_1-1 IS USED MORE THAN 
             ONCE AS A SECONDARY NODE IN THE *TIE KEYWORD.  THE CONSTRAINT 
             BETWEEN THIS NODE AND THE MAIN SURFACE WITH NODE 2651 INSTANCE 
             BOX-1 IS REMOVED.  CHECK IF THIS IS ACCEPTABLE.

 ***WARNING: OVERCONSTRAINT CHECKS: NODE 17 INSTANCE BOOM_1-1 IS USED MORE THAN 
             ONCE AS A SECONDARY NODE IN THE *TIE KEYWORD.  THE CONSTRAINT 
             BETWEEN THIS NODE AND THE MAIN SURFACE WITH NODE 2651 INSTANCE 
             BOX-1 IS REMOVED.  CHECK IF THIS IS ACCEPTABLE.

 ***WARNING: OVERCONSTRAINT CHECKS: NODE 18 INSTANCE BOOM_1-1 IS USED MORE THAN 
             ONCE AS A SECONDARY NODE IN THE *TIE KEYWORD.  THE CONSTRAINT 
             BETWEEN THIS NODE AND THE MAIN SURFACE WITH NODE 2651 INSTANCE 
             BOX-1 IS REMOVED.  CHECK IF THIS IS ACCEPTABLE.

 ***WARNING: OVERCONSTRAINT CHECKS: NODE 18 INSTANCE BOOM_1-1 IS USED MORE THAN 
             ONCE AS A SECONDARY NODE IN THE *TIE KEYWORD.  THE CONSTRAINT 
             BETWEEN THIS NODE AND THE MAIN SURFACE WITH NODE 2651 INSTANCE 
             BOX-1 IS REMOVED.  CHECK IF THIS IS ACCEPTABLE.

 ***WARNING: OVERCONSTRAINT CHECKS: NODE 19 INSTANCE BOOM_1-1 IS USED MORE THAN 
             ONCE AS A SECONDARY NODE IN THE *TIE KEYWORD.  THE CONSTRAINT 
             BETWEEN THIS NODE AND THE MAIN SURFACE WITH NODE 2652 INSTANCE 
             BOX-1 IS REMOVED.  CHECK IF THIS IS ACCEPTABLE.

 ***WARNING: OVERCONSTRAINT CHECKS: NODE 19 INSTANCE BOOM_1-1 IS USED MORE THAN 
             ONCE AS A SECONDARY NODE IN THE *TIE KEYWORD.  THE CONSTRAINT 
             BETWEEN THIS NODE AND THE MAIN SURFACE WITH NODE 2652 INSTANCE 
             BOX-1 IS REMOVED.  CHECK IF THIS IS ACCEPTABLE.

 ***WARNING: OVERCONSTRAINT CHECKS: NODE 20 INSTANCE BOOM_1-1 IS USED MORE THAN 
             ONCE AS A SECONDARY NODE IN THE *TIE KEYWORD.  THE CONSTRAINT 
             BETWEEN THIS NODE AND THE MAIN SURFACE WITH NODE 2653 INSTANCE 
             BOX-1 IS REMOVED.  CHECK IF THIS IS ACCEPTABLE.

 ***WARNING: OVERCONSTRAINT CHECKS: NODE 20 INSTANCE BOOM_1-1 IS USED MORE THAN 
             ONCE AS A SECONDARY NODE IN THE *TIE KEYWORD.  THE CONSTRAINT 
             BETWEEN THIS NODE AND THE MAIN SURFACE WITH NODE 2653 INSTANCE 
             BOX-1 IS REMOVED.  CHECK IF THIS IS ACCEPTABLE.

 ***WARNING: OVERCONSTRAINT CHECKS: NODE 21 INSTANCE BOOM_1-1 IS USED MORE THAN 
             ONCE AS A SECONDARY NODE IN THE *TIE KEYWORD.  THE CONSTRAINT 
             BETWEEN THIS NODE AND THE MAIN SURFACE WITH NODE 2653 INSTANCE 
             BOX-1 IS REMOVED.  CHECK IF THIS IS ACCEPTABLE.

 ***WARNING: OVERCONSTRAINT CHECKS: NODE 21 INSTANCE BOOM_1-1 IS USED MORE THAN 
             ONCE AS A SECONDARY NODE IN THE *TIE KEYWORD.  THE CONSTRAINT 
             BETWEEN THIS NODE AND THE MAIN SURFACE WITH NODE 2653 INSTANCE 
             BOX-1 IS REMOVED.  CHECK IF THIS IS ACCEPTABLE.

 ***WARNING: OVERCONSTRAINT CHECKS: NODE 22 INSTANCE BOOM_1-1 IS USED MORE THAN 
             ONCE AS A SECONDARY NODE IN THE *TIE KEYWORD.  THE CONSTRAINT 
             BETWEEN THIS NODE AND THE MAIN SURFACE WITH NODE 2654 INSTANCE 
             BOX-1 IS REMOVED.  CHECK IF THIS IS ACCEPTABLE.

 ***WARNING: OVERCONSTRAINT CHECKS: NODE 22 INSTANCE BOOM_1-1 IS USED MORE THAN 
             ONCE AS A SECONDARY NODE IN THE *TIE KEYWORD.  THE CONSTRAINT 
             BETWEEN THIS NODE AND THE MAIN SURFACE WITH NODE 2654 INSTANCE 
             BOX-1 IS REMOVED.  CHECK IF THIS IS ACCEPTABLE.

 ***WARNING: OVERCONSTRAINT CHECKS: NODE 23 INSTANCE BOOM_1-1 IS USED MORE THAN 
             ONCE AS A SECONDARY NODE IN THE *TIE KEYWORD.  THE CONSTRAINT 
             BETWEEN THIS NODE AND THE MAIN SURFACE WITH NODE 2655 INSTANCE 
             BOX-1 IS REMOVED.  CHECK IF THIS IS ACCEPTABLE.

 ***WARNING: OVERCONSTRAINT CHECKS: NODE 23 INSTANCE BOOM_1-1 IS USED MORE THAN 
             ONCE AS A SECONDARY NODE IN THE *TIE KEYWORD.  THE CONSTRAINT 
             BETWEEN THIS NODE AND THE MAIN SURFACE WITH NODE 2655 INSTANCE 
             BOX-1 IS REMOVED.  CHECK IF THIS IS ACCEPTABLE.

 ***WARNING: OVERCONSTRAINT CHECKS: NODE 24 INSTANCE BOOM_1-1 IS USED MORE THAN 
             ONCE AS A SECONDARY NODE IN THE *TIE KEYWORD.  THE CONSTRAINT 
             BETWEEN THIS NODE AND THE MAIN SURFACE WITH NODE 2655 INSTANCE 
             BOX-1 IS REMOVED.  CHECK IF THIS IS ACCEPTABLE.

 ***WARNING: OVERCONSTRAINT CHECKS: NODE 24 INSTANCE BOOM_1-1 IS USED MORE THAN 
             ONCE AS A SECONDARY NODE IN THE *TIE KEYWORD.  THE CONSTRAINT 
             BETWEEN THIS NODE AND THE MAIN SURFACE WITH NODE 2655 INSTANCE 
             BOX-1 IS REMOVED.  CHECK IF THIS IS ACCEPTABLE.

 ***WARNING: OVERCONSTRAINT CHECKS: NODE 25 INSTANCE BOOM_1-1 IS USED MORE THAN 
             ONCE AS A SECONDARY NODE IN THE *TIE KEYWORD.  THE CONSTRAINT 
             BETWEEN THIS NODE AND THE MAIN SURFACE WITH NODE 2656 INSTANCE 
             BOX-1 IS REMOVED.  CHECK IF THIS IS ACCEPTABLE.

 ***WARNING: OVERCONSTRAINT CHECKS: NODE 25 INSTANCE BOOM_1-1 IS USED MORE THAN 
             ONCE AS A SECONDARY NODE IN THE *TIE KEYWORD.  THE CONSTRAINT 
             BETWEEN THIS NODE AND THE MAIN SURFACE WITH NODE 2656 INSTANCE 
             BOX-1 IS REMOVED.  CHECK IF THIS IS ACCEPTABLE.

 ***WARNING: OVERCONSTRAINT CHECKS: NODE 26 INSTANCE BOOM_1-1 IS USED MORE THAN 
             ONCE AS A SECONDARY NODE IN THE *TIE KEYWORD.  THE CONSTRAINT 
             BETWEEN THIS NODE AND THE MAIN SURFACE WITH NODE 2657 INSTANCE 
             BOX-1 IS REMOVED.  CHECK IF THIS IS ACCEPTABLE.

 ***WARNING: OVERCONSTRAINT CHECKS: NODE 26 INSTANCE BOOM_1-1 IS USED MORE THAN 
             ONCE AS A SECONDARY NODE IN THE *TIE KEYWORD.  THE CONSTRAINT 
             BETWEEN THIS NODE AND THE MAIN SURFACE WITH NODE 2657 INSTANCE 
             BOX-1 IS REMOVED.  CHECK IF THIS IS ACCEPTABLE.

 ***WARNING: OVERCONSTRAINT CHECKS: NODE 27 INSTANCE BOOM_1-1 IS USED MORE THAN 
             ONCE AS A SECONDARY NODE IN THE *TIE KEYWORD.  THE CONSTRAINT 
             BETWEEN THIS NODE AND THE MAIN SURFACE WITH NODE 2657 INSTANCE 
             BOX-1 IS REMOVED.  CHECK IF THIS IS ACCEPTABLE.

 ***WARNING: OVERCONSTRAINT CHECKS: NODE 27 INSTANCE BOOM_1-1 IS USED MORE THAN 
             ONCE AS A SECONDARY NODE IN THE *TIE KEYWORD.  THE CONSTRAINT 
             BETWEEN THIS NODE AND THE MAIN SURFACE WITH NODE 2657 INSTANCE 
             BOX-1 IS REMOVED.  CHECK IF THIS IS ACCEPTABLE.

 ***WARNING: OVERCONSTRAINT CHECKS: NODE 28 INSTANCE BOOM_1-1 IS USED MORE THAN 
             ONCE AS A SECONDARY NODE IN THE *TIE KEYWORD.  THE CONSTRAINT 
             BETWEEN THIS NODE AND THE MAIN SURFACE WITH NODE 2658 INSTANCE 
             BOX-1 IS REMOVED.  CHECK IF THIS IS ACCEPTABLE.

 ***WARNING: OVERCONSTRAINT CHECKS: NODE 28 INSTANCE BOOM_1-1 IS USED MORE THAN 
             ONCE AS A SECONDARY NODE IN THE *TIE KEYWORD.  THE CONSTRAINT 
             BETWEEN THIS NODE AND THE MAIN SURFACE WITH NODE 2658 INSTANCE 
             BOX-1 IS REMOVED.  CHECK IF THIS IS ACCEPTABLE.

 ***WARNING: OVERCONSTRAINT CHECKS: NODE 29 INSTANCE BOOM_1-1 IS USED MORE THAN 
             ONCE AS A SECONDARY NODE IN THE *TIE KEYWORD.  THE CONSTRAINT 
             BETWEEN THIS NODE AND THE MAIN SURFACE WITH NODE 2658 INSTANCE 
             BOX-1 IS REMOVED.  CHECK IF THIS IS ACCEPTABLE.

 ***WARNING: OVERCONSTRAINT CHECKS: NODE 29 INSTANCE BOOM_1-1 IS USED MORE THAN 
             ONCE AS A SECONDARY NODE IN THE *TIE KEYWORD.  THE CONSTRAINT 
             BETWEEN THIS NODE AND THE MAIN SURFACE WITH NODE 2658 INSTANCE 
             BOX-1 IS REMOVED.  CHECK IF THIS IS ACCEPTABLE.

 ***WARNING: OVERCONSTRAINT CHECKS: NODE 30 INSTANCE BOOM_1-1 IS USED MORE THAN 
             ONCE AS A SECONDARY NODE IN THE *TIE KEYWORD.  THE CONSTRAINT 
             BETWEEN THIS NODE AND THE MAIN SURFACE WITH NODE 2659 INSTANCE 
             BOX-1 IS REMOVED.  CHECK IF THIS IS ACCEPTABLE.

 ***WARNING: OVERCONSTRAINT CHECKS: NODE 30 INSTANCE BOOM_1-1 IS USED MORE THAN 
             ONCE AS A SECONDARY NODE IN THE *TIE KEYWORD.  THE CONSTRAINT 
             BETWEEN THIS NODE AND THE MAIN SURFACE WITH NODE 2659 INSTANCE 
             BOX-1 IS REMOVED.  CHECK IF THIS IS ACCEPTABLE.

 ***WARNING: OVERCONSTRAINT CHECKS: NODE 31 INSTANCE BOOM_1-1 IS USED MORE THAN 
             ONCE AS A SECONDARY NODE IN THE *TIE KEYWORD.  THE CONSTRAINT 
             BETWEEN THIS NODE AND THE MAIN SURFACE WITH NODE 62 INSTANCE BOX-1 
             IS REMOVED.  CHECK IF THIS IS ACCEPTABLE.

 ***WARNING: OVERCONSTRAINT CHECKS: NODE 31 INSTANCE BOOM_1-1 IS USED MORE THAN 
             ONCE AS A SECONDARY NODE IN THE *TIE KEYWORD.  THE CONSTRAINT 
             BETWEEN THIS NODE AND THE MAIN SURFACE WITH NODE 62 INSTANCE BOX-1 
             IS REMOVED.  CHECK IF THIS IS ACCEPTABLE.

 ***WARNING: OVERCONSTRAINT CHECKS: NODE 32 INSTANCE BOOM_1-1 IS USED MORE THAN 
             ONCE AS A SECONDARY NODE IN THE *TIE KEYWORD.  THE CONSTRAINT 
             BETWEEN THIS NODE AND THE MAIN SURFACE WITH NODE 62 INSTANCE BOX-1 
             IS REMOVED.  CHECK IF THIS IS ACCEPTABLE.

 ***WARNING: OVERCONSTRAINT CHECKS: NODE 32 INSTANCE BOOM_1-1 IS USED MORE THAN 
             ONCE AS A SECONDARY NODE IN THE *TIE KEYWORD.  THE CONSTRAINT 
             BETWEEN THIS NODE AND THE MAIN SURFACE WITH NODE 62 INSTANCE BOX-1 
             IS REMOVED.  CHECK IF THIS IS ACCEPTABLE.

 ***WARNING: OVERCONSTRAINT CHECKS: NODE 33 INSTANCE BOOM_1-1 IS USED MORE THAN 
             ONCE AS A SECONDARY NODE IN THE *TIE KEYWORD.  THE CONSTRAINT 
             BETWEEN THIS NODE AND THE MAIN SURFACE WITH NODE 62 INSTANCE BOX-1 
             IS REMOVED.  CHECK IF THIS IS ACCEPTABLE.

 ***WARNING: OVERCONSTRAINT CHECKS: NODE 33 INSTANCE BOOM_1-1 IS USED MORE THAN 
             ONCE AS A SECONDARY NODE IN THE *TIE KEYWORD.  THE CONSTRAINT 
             BETWEEN THIS NODE AND THE MAIN SURFACE WITH NODE 62 INSTANCE BOX-1 
             IS REMOVED.  CHECK IF THIS IS ACCEPTABLE.

 ***WARNING: OVERCONSTRAINT CHECKS: NODE 34 INSTANCE BOOM_1-1 IS USED MORE THAN 
             ONCE AS A SECONDARY NODE IN THE *TIE KEYWORD.  THE CONSTRAINT 
             BETWEEN THIS NODE AND THE MAIN SURFACE WITH NODE 2072 INSTANCE 
             BOX-1 IS REMOVED.  CHECK IF THIS IS ACCEPTABLE.

 ***WARNING: OVERCONSTRAINT CHECKS: NODE 34 INSTANCE BOOM_1-1 IS USED MORE THAN 
             ONCE AS A SECONDARY NODE IN THE *TIE KEYWORD.  THE CONSTRAINT 
             BETWEEN THIS NODE AND THE MAIN SURFACE WITH NODE 2072 INSTANCE 
             BOX-1 IS REMOVED.  CHECK IF THIS IS ACCEPTABLE.

 ***WARNING: OVERCONSTRAINT CHECKS: NODE 35 INSTANCE BOOM_1-1 IS USED MORE THAN 
             ONCE AS A SECONDARY NODE IN THE *TIE KEYWORD.  THE CONSTRAINT 
             BETWEEN THIS NODE AND THE MAIN SURFACE WITH NODE 2072 INSTANCE 
             BOX-1 IS REMOVED.  CHECK IF THIS IS ACCEPTABLE.

 ***WARNING: OVERCONSTRAINT CHECKS: NODE 35 INSTANCE BOOM_1-1 IS USED MORE THAN 
             ONCE AS A SECONDARY NODE IN THE *TIE KEYWORD.  THE CONSTRAINT 
             BETWEEN THIS NODE AND THE MAIN SURFACE WITH NODE 2072 INSTANCE 
             BOX-1 IS REMOVED.  CHECK IF THIS IS ACCEPTABLE.

 ***WARNING: OVERCONSTRAINT CHECKS: NODE 36 INSTANCE BOOM_1-1 IS USED MORE THAN 
             ONCE AS A SECONDARY NODE IN THE *TIE KEYWORD.  THE CONSTRAINT 
             BETWEEN THIS NODE AND THE MAIN SURFACE WITH NODE 2073 INSTANCE 
             BOX-1 IS REMOVED.  CHECK IF THIS IS ACCEPTABLE.

 ***WARNING: OVERCONSTRAINT CHECKS: NODE 36 INSTANCE BOOM_1-1 IS USED MORE THAN 
             ONCE AS A SECONDARY NODE IN THE *TIE KEYWORD.  THE CONSTRAINT 
             BETWEEN THIS NODE AND THE MAIN SURFACE WITH NODE 2073 INSTANCE 
             BOX-1 IS REMOVED.  CHECK IF THIS IS ACCEPTABLE.

 ***WARNING: OVERCONSTRAINT CHECKS: NODE 37 INSTANCE BOOM_1-1 IS USED MORE THAN 
             ONCE AS A SECONDARY NODE IN THE *TIE KEYWORD.  THE CONSTRAINT 
             BETWEEN THIS NODE AND THE MAIN SURFACE WITH NODE 2074 INSTANCE 
             BOX-1 IS REMOVED.  CHECK IF THIS IS ACCEPTABLE.

 ***WARNING: OVERCONSTRAINT CHECKS: NODE 37 INSTANCE BOOM_1-1 IS USED MORE THAN 
             ONCE AS A SECONDARY NODE IN THE *TIE KEYWORD.  THE CONSTRAINT 
             BETWEEN THIS NODE AND THE MAIN SURFACE WITH NODE 2074 INSTANCE 
             BOX-1 IS REMOVED.  CHECK IF THIS IS ACCEPTABLE.

 ***WARNING: OVERCONSTRAINT CHECKS: NODE 38 INSTANCE BOOM_1-1 IS USED MORE THAN 
             ONCE AS A SECONDARY NODE IN THE *TIE KEYWORD.  THE CONSTRAINT 
             BETWEEN THIS NODE AND THE MAIN SURFACE WITH NODE 2074 INSTANCE 
             BOX-1 IS REMOVED.  CHECK IF THIS IS ACCEPTABLE.

 ***WARNING: OVERCONSTRAINT CHECKS: NODE 38 INSTANCE BOOM_1-1 IS USED MORE THAN 
             ONCE AS A SECONDARY NODE IN THE *TIE KEYWORD.  THE CONSTRAINT 
             BETWEEN THIS NODE AND THE MAIN SURFACE WITH NODE 2074 INSTANCE 
             BOX-1 IS REMOVED.  CHECK IF THIS IS ACCEPTABLE.

 ***WARNING: OVERCONSTRAINT CHECKS: NODE 39 INSTANCE BOOM_1-1 IS USED MORE THAN 
             ONCE AS A SECONDARY NODE IN THE *TIE KEYWORD.  THE CONSTRAINT 
             BETWEEN THIS NODE AND THE MAIN SURFACE WITH NODE 2075 INSTANCE 
             BOX-1 IS REMOVED.  CHECK IF THIS IS ACCEPTABLE.

 ***WARNING: OVERCONSTRAINT CHECKS: NODE 39 INSTANCE BOOM_1-1 IS USED MORE THAN 
             ONCE AS A SECONDARY NODE IN THE *TIE KEYWORD.  THE CONSTRAINT 
             BETWEEN THIS NODE AND THE MAIN SURFACE WITH NODE 2075 INSTANCE 
             BOX-1 IS REMOVED.  CHECK IF THIS IS ACCEPTABLE.

 ***WARNING: OVERCONSTRAINT CHECKS: NODE 40 INSTANCE BOOM_1-1 IS USED MORE THAN 
             ONCE AS A SECONDARY NODE IN THE *TIE KEYWORD.  THE CONSTRAINT 
             BETWEEN THIS NODE AND THE MAIN SURFACE WITH NODE 2076 INSTANCE 
             BOX-1 IS REMOVED.  CHECK IF THIS IS ACCEPTABLE.

 ***WARNING: OVERCONSTRAINT CHECKS: NODE 40 INSTANCE BOOM_1-1 IS USED MORE THAN 
             ONCE AS A SECONDARY NODE IN THE *TIE KEYWORD.  THE CONSTRAINT 
             BETWEEN THIS NODE AND THE MAIN SURFACE WITH NODE 2076 INSTANCE 
             BOX-1 IS REMOVED.  CHECK IF THIS IS ACCEPTABLE.

 ***WARNING: OVERCONSTRAINT CHECKS: NODE 41 INSTANCE BOOM_1-1 IS USED MORE THAN 
             ONCE AS A SECONDARY NODE IN THE *TIE KEYWORD.  THE CONSTRAINT 
             BETWEEN THIS NODE AND THE MAIN SURFACE WITH NODE 2076 INSTANCE 
             BOX-1 IS REMOVED.  CHECK IF THIS IS ACCEPTABLE.

 ***WARNING: OVERCONSTRAINT CHECKS: NODE 41 INSTANCE BOOM_1-1 IS USED MORE THAN 
             ONCE AS A SECONDARY NODE IN THE *TIE KEYWORD.  THE CONSTRAINT 
             BETWEEN THIS NODE AND THE MAIN SURFACE WITH NODE 2076 INSTANCE 
             BOX-1 IS REMOVED.  CHECK IF THIS IS ACCEPTABLE.

 ***WARNING: OVERCONSTRAINT CHECKS: NODE 42 INSTANCE BOOM_1-1 IS USED MORE THAN 
             ONCE AS A SECONDARY NODE IN THE *TIE KEYWORD.  THE CONSTRAINT 
             BETWEEN THIS NODE AND THE MAIN SURFACE WITH NODE 2077 INSTANCE 
             BOX-1 IS REMOVED.  CHECK IF THIS IS ACCEPTABLE.

 ***WARNING: OVERCONSTRAINT CHECKS: NODE 42 INSTANCE BOOM_1-1 IS USED MORE THAN 
             ONCE AS A SECONDARY NODE IN THE *TIE KEYWORD.  THE CONSTRAINT 
             BETWEEN THIS NODE AND THE MAIN SURFACE WITH NODE 2077 INSTANCE 
             BOX-1 IS REMOVED.  CHECK IF THIS IS ACCEPTABLE.

 ***WARNING: OVERCONSTRAINT CHECKS: NODE 43 INSTANCE BOOM_1-1 IS USED MORE THAN 
             ONCE AS A SECONDARY NODE IN THE *TIE KEYWORD.  THE CONSTRAINT 
             BETWEEN THIS NODE AND THE MAIN SURFACE WITH NODE 2077 INSTANCE 
             BOX-1 IS REMOVED.  CHECK IF THIS IS ACCEPTABLE.

 ***WARNING: OVERCONSTRAINT CHECKS: NODE 43 INSTANCE BOOM_1-1 IS USED MORE THAN 
             ONCE AS A SECONDARY NODE IN THE *TIE KEYWORD.  THE CONSTRAINT 
             BETWEEN THIS NODE AND THE MAIN SURFACE WITH NODE 2077 INSTANCE 
             BOX-1 IS REMOVED.  CHECK IF THIS IS ACCEPTABLE.

 ***WARNING: OVERCONSTRAINT CHECKS: NODE 44 INSTANCE BOOM_1-1 IS USED MORE THAN 
             ONCE AS A SECONDARY NODE IN THE *TIE KEYWORD.  THE CONSTRAINT 
             BETWEEN THIS NODE AND THE MAIN SURFACE WITH NODE 2078 INSTANCE 
             BOX-1 IS REMOVED.  CHECK IF THIS IS ACCEPTABLE.

 ***WARNING: OVERCONSTRAINT CHECKS: NODE 44 INSTANCE BOOM_1-1 IS USED MORE THAN 
             ONCE AS A SECONDARY NODE IN THE *TIE KEYWORD.  THE CONSTRAINT 
             BETWEEN THIS NODE AND THE MAIN SURFACE WITH NODE 2078 INSTANCE 
             BOX-1 IS REMOVED.  CHECK IF THIS IS ACCEPTABLE.

 ***WARNING: OVERCONSTRAINT CHECKS: NODE 45 INSTANCE BOOM_1-1 IS USED MORE THAN 
             ONCE AS A SECONDARY NODE IN THE *TIE KEYWORD.  THE CONSTRAINT 
             BETWEEN THIS NODE AND THE MAIN SURFACE WITH NODE 2079 INSTANCE 
             BOX-1 IS REMOVED.  CHECK IF THIS IS ACCEPTABLE.

 ***WARNING: OVERCONSTRAINT CHECKS: NODE 45 INSTANCE BOOM_1-1 IS USED MORE THAN 
             ONCE AS A SECONDARY NODE IN THE *TIE KEYWORD.  THE CONSTRAINT 
             BETWEEN THIS NODE AND THE MAIN SURFACE WITH NODE 2079 INSTANCE 
             BOX-1 IS REMOVED.  CHECK IF THIS IS ACCEPTABLE.

 ***WARNING: OVERCONSTRAINT CHECKS: NODE 46 INSTANCE BOOM_1-1 IS USED MORE THAN 
             ONCE AS A SECONDARY NODE IN THE *TIE KEYWORD.  THE CONSTRAINT 
             BETWEEN THIS NODE AND THE MAIN SURFACE WITH NODE 2079 INSTANCE 
             BOX-1 IS REMOVED.  CHECK IF THIS IS ACCEPTABLE.

 ***WARNING: OVERCONSTRAINT CHECKS: NODE 46 INSTANCE BOOM_1-1 IS USED MORE THAN 
             ONCE AS A SECONDARY NODE IN THE *TIE KEYWORD.  THE CONSTRAINT 
             BETWEEN THIS NODE AND THE MAIN SURFACE WITH NODE 2079 INSTANCE 
             BOX-1 IS REMOVED.  CHECK IF THIS IS ACCEPTABLE.

 ***WARNING: OVERCONSTRAINT CHECKS: NODE 47 INSTANCE BOOM_1-1 IS USED MORE THAN 
             ONCE AS A SECONDARY NODE IN THE *TIE KEYWORD.  THE CONSTRAINT 
             BETWEEN THIS NODE AND THE MAIN SURFACE WITH NODE 2080 INSTANCE 
             BOX-1 IS REMOVED.  CHECK IF THIS IS ACCEPTABLE.

 ***WARNING: OVERCONSTRAINT CHECKS: NODE 47 INSTANCE BOOM_1-1 IS USED MORE THAN 
             ONCE AS A SECONDARY NODE IN THE *TIE KEYWORD.  THE CONSTRAINT 
             BETWEEN THIS NODE AND THE MAIN SURFACE WITH NODE 2080 INSTANCE 
             BOX-1 IS REMOVED.  CHECK IF THIS IS ACCEPTABLE.

 ***WARNING: OVERCONSTRAINT CHECKS: NODE 48 INSTANCE BOOM_1-1 IS USED MORE THAN 
             ONCE AS A SECONDARY NODE IN THE *TIE KEYWORD.  THE CONSTRAINT 
             BETWEEN THIS NODE AND THE MAIN SURFACE WITH NODE 2081 INSTANCE 
             BOX-1 IS REMOVED.  CHECK IF THIS IS ACCEPTABLE.

 ***WARNING: OVERCONSTRAINT CHECKS: NODE 48 INSTANCE BOOM_1-1 IS USED MORE THAN 
             ONCE AS A SECONDARY NODE IN THE *TIE KEYWORD.  THE CONSTRAINT 
             BETWEEN THIS NODE AND THE MAIN SURFACE WITH NODE 2081 INSTANCE 
             BOX-1 IS REMOVED.  CHECK IF THIS IS ACCEPTABLE.

 ***WARNING: OVERCONSTRAINT CHECKS: NODE 49 INSTANCE BOOM_1-1 IS USED MORE THAN 
             ONCE AS A SECONDARY NODE IN THE *TIE KEYWORD.  THE CONSTRAINT 
             BETWEEN THIS NODE AND THE MAIN SURFACE WITH NODE 2081 INSTANCE 
             BOX-1 IS REMOVED.  CHECK IF THIS IS ACCEPTABLE.

 ***WARNING: OVERCONSTRAINT CHECKS: NODE 49 INSTANCE BOOM_1-1 IS USED MORE THAN 
             ONCE AS A SECONDARY NODE IN THE *TIE KEYWORD.  THE CONSTRAINT 
             BETWEEN THIS NODE AND THE MAIN SURFACE WITH NODE 2081 INSTANCE 
             BOX-1 IS REMOVED.  CHECK IF THIS IS ACCEPTABLE.

 ***WARNING: OVERCONSTRAINT CHECKS: NODE 50 INSTANCE BOOM_1-1 IS USED MORE THAN 
             ONCE AS A SECONDARY NODE IN THE *TIE KEYWORD.  THE CONSTRAINT 
             BETWEEN THIS NODE AND THE MAIN SURFACE WITH NODE 2082 INSTANCE 
             BOX-1 IS REMOVED.  CHECK IF THIS IS ACCEPTABLE.

 ***WARNING: OVERCONSTRAINT CHECKS: NODE 50 INSTANCE BOOM_1-1 IS USED MORE THAN 
             ONCE AS A SECONDARY NODE IN THE *TIE KEYWORD.  THE CONSTRAINT 
             BETWEEN THIS NODE AND THE MAIN SURFACE WITH NODE 2082 INSTANCE 
             BOX-1 IS REMOVED.  CHECK IF THIS IS ACCEPTABLE.

 ***WARNING: OVERCONSTRAINT CHECKS: NODE 51 INSTANCE BOOM_1-1 IS USED MORE THAN 
             ONCE AS A SECONDARY NODE IN THE *TIE KEYWORD.  THE CONSTRAINT 
             BETWEEN THIS NODE AND THE MAIN SURFACE WITH NODE 2083 INSTANCE 
             BOX-1 IS REMOVED.  CHECK IF THIS IS ACCEPTABLE.

 ***WARNING: OVERCONSTRAINT CHECKS: NODE 51 INSTANCE BOOM_1-1 IS USED MORE THAN 
             ONCE AS A SECONDARY NODE IN THE *TIE KEYWORD.  THE CONSTRAINT 
             BETWEEN THIS NODE AND THE MAIN SURFACE WITH NODE 2083 INSTANCE 
             BOX-1 IS REMOVED.  CHECK IF THIS IS ACCEPTABLE.

 ***WARNING: OVERCONSTRAINT CHECKS: NODE 52 INSTANCE BOOM_1-1 IS USED MORE THAN 
             ONCE AS A SECONDARY NODE IN THE *TIE KEYWORD.  THE CONSTRAINT 
             BETWEEN THIS NODE AND THE MAIN SURFACE WITH NODE 2083 INSTANCE 
             BOX-1 IS REMOVED.  CHECK IF THIS IS ACCEPTABLE.

 ***WARNING: OVERCONSTRAINT CHECKS: NODE 52 INSTANCE BOOM_1-1 IS USED MORE THAN 
             ONCE AS A SECONDARY NODE IN THE *TIE KEYWORD.  THE CONSTRAINT 
             BETWEEN THIS NODE AND THE MAIN SURFACE WITH NODE 2083 INSTANCE 
             BOX-1 IS REMOVED.  CHECK IF THIS IS ACCEPTABLE.

 ***WARNING: OVERCONSTRAINT CHECKS: NODE 53 INSTANCE BOOM_1-1 IS USED MORE THAN 
             ONCE AS A SECONDARY NODE IN THE *TIE KEYWORD.  THE CONSTRAINT 
             BETWEEN THIS NODE AND THE MAIN SURFACE WITH NODE 2084 INSTANCE 
             BOX-1 IS REMOVED.  CHECK IF THIS IS ACCEPTABLE.

 ***WARNING: OVERCONSTRAINT CHECKS: NODE 53 INSTANCE BOOM_1-1 IS USED MORE THAN 
             ONCE AS A SECONDARY NODE IN THE *TIE KEYWORD.  THE CONSTRAINT 
             BETWEEN THIS NODE AND THE MAIN SURFACE WITH NODE 2084 INSTANCE 
             BOX-1 IS REMOVED.  CHECK IF THIS IS ACCEPTABLE.

 ***WARNING: OVERCONSTRAINT CHECKS: NODE 54 INSTANCE BOOM_1-1 IS USED MORE THAN 
             ONCE AS A SECONDARY NODE IN THE *TIE KEYWORD.  THE CONSTRAINT 
             BETWEEN THIS NODE AND THE MAIN SURFACE WITH NODE 2085 INSTANCE 
             BOX-1 IS REMOVED.  CHECK IF THIS IS ACCEPTABLE.

 ***WARNING: OVERCONSTRAINT CHECKS: NODE 54 INSTANCE BOOM_1-1 IS USED MORE THAN 
             ONCE AS A SECONDARY NODE IN THE *TIE KEYWORD.  THE CONSTRAINT 
             BETWEEN THIS NODE AND THE MAIN SURFACE WITH NODE 2085 INSTANCE 
             BOX-1 IS REMOVED.  CHECK IF THIS IS ACCEPTABLE.

 ***WARNING: OVERCONSTRAINT CHECKS: NODE 55 INSTANCE BOOM_1-1 IS USED MORE THAN 
             ONCE AS A SECONDARY NODE IN THE *TIE KEYWORD.  THE CONSTRAINT 
             BETWEEN THIS NODE AND THE MAIN SURFACE WITH NODE 2085 INSTANCE 
             BOX-1 IS REMOVED.  CHECK IF THIS IS ACCEPTABLE.

 ***WARNING: OVERCONSTRAINT CHECKS: NODE 55 INSTANCE BOOM_1-1 IS USED MORE THAN 
             ONCE AS A SECONDARY NODE IN THE *TIE KEYWORD.  THE CONSTRAINT 
             BETWEEN THIS NODE AND THE MAIN SURFACE WITH NODE 2085 INSTANCE 
             BOX-1 IS REMOVED.  CHECK IF THIS IS ACCEPTABLE.

 ***WARNING: OVERCONSTRAINT CHECKS: NODE 56 INSTANCE BOOM_1-1 IS USED MORE THAN 
             ONCE AS A SECONDARY NODE IN THE *TIE KEYWORD.  THE CONSTRAINT 
             BETWEEN THIS NODE AND THE MAIN SURFACE WITH NODE 2086 INSTANCE 
             BOX-1 IS REMOVED.  CHECK IF THIS IS ACCEPTABLE.

 ***WARNING: OVERCONSTRAINT CHECKS: NODE 56 INSTANCE BOOM_1-1 IS USED MORE THAN 
             ONCE AS A SECONDARY NODE IN THE *TIE KEYWORD.  THE CONSTRAINT 
             BETWEEN THIS NODE AND THE MAIN SURFACE WITH NODE 2086 INSTANCE 
             BOX-1 IS REMOVED.  CHECK IF THIS IS ACCEPTABLE.

 ***WARNING: OVERCONSTRAINT CHECKS: NODE 57 INSTANCE BOOM_1-1 IS USED MORE THAN 
             ONCE AS A SECONDARY NODE IN THE *TIE KEYWORD.  THE CONSTRAINT 
             BETWEEN THIS NODE AND THE MAIN SURFACE WITH NODE 2086 INSTANCE 
             BOX-1 IS REMOVED.  CHECK IF THIS IS ACCEPTABLE.

 ***WARNING: OVERCONSTRAINT CHECKS: NODE 57 INSTANCE BOOM_1-1 IS USED MORE THAN 
             ONCE AS A SECONDARY NODE IN THE *TIE KEYWORD.  THE CONSTRAINT 
             BETWEEN THIS NODE AND THE MAIN SURFACE WITH NODE 2086 INSTANCE 
             BOX-1 IS REMOVED.  CHECK IF THIS IS ACCEPTABLE.

 ***WARNING: OVERCONSTRAINT CHECKS: NODE 58 INSTANCE BOOM_1-1 IS USED MORE THAN 
             ONCE AS A SECONDARY NODE IN THE *TIE KEYWORD.  THE CONSTRAINT 
             BETWEEN THIS NODE AND THE MAIN SURFACE WITH NODE 2087 INSTANCE 
             BOX-1 IS REMOVED.  CHECK IF THIS IS ACCEPTABLE.

 ***WARNING: OVERCONSTRAINT CHECKS: NODE 58 INSTANCE BOOM_1-1 IS USED MORE THAN 
             ONCE AS A SECONDARY NODE IN THE *TIE KEYWORD.  THE CONSTRAINT 
             BETWEEN THIS NODE AND THE MAIN SURFACE WITH NODE 2087 INSTANCE 
             BOX-1 IS REMOVED.  CHECK IF THIS IS ACCEPTABLE.

 ***WARNING: OVERCONSTRAINT CHECKS: NODE 59 INSTANCE BOOM_1-1 IS USED MORE THAN 
             ONCE AS A SECONDARY NODE IN THE *TIE KEYWORD.  THE CONSTRAINT 
             BETWEEN THIS NODE AND THE MAIN SURFACE WITH NODE 54 INSTANCE BOX-1 
             IS REMOVED.  CHECK IF THIS IS ACCEPTABLE.

 ***WARNING: OVERCONSTRAINT CHECKS: NODE 59 INSTANCE BOOM_1-1 IS USED MORE THAN 
             ONCE AS A SECONDARY NODE IN THE *TIE KEYWORD.  THE CONSTRAINT 
             BETWEEN THIS NODE AND THE MAIN SURFACE WITH NODE 54 INSTANCE BOX-1 
             IS REMOVED.  CHECK IF THIS IS ACCEPTABLE.

 ***WARNING: OVERCONSTRAINT CHECKS: NODE 60 INSTANCE BOOM_1-1 IS USED MORE THAN 
             ONCE AS A SECONDARY NODE IN THE *TIE KEYWORD.  THE CONSTRAINT 
             BETWEEN THIS NODE AND THE MAIN SURFACE WITH NODE 54 INSTANCE BOX-1 
             IS REMOVED.  CHECK IF THIS IS ACCEPTABLE.

 ***WARNING: OVERCONSTRAINT CHECKS: NODE 60 INSTANCE BOOM_1-1 IS USED MORE THAN 
             ONCE AS A SECONDARY NODE IN THE *TIE KEYWORD.  THE CONSTRAINT 
             BETWEEN THIS NODE AND THE MAIN SURFACE WITH NODE 54 INSTANCE BOX-1 
             IS REMOVED.  CHECK IF THIS IS ACCEPTABLE.

 ***WARNING: OVERCONSTRAINT CHECKS: NODE 61 INSTANCE BOOM_1-1 IS USED MORE THAN 
             ONCE AS A SECONDARY NODE IN THE *TIE KEYWORD.  THE CONSTRAINT 
             BETWEEN THIS NODE AND THE MAIN SURFACE WITH NODE 54 INSTANCE BOX-1 
             IS REMOVED.  CHECK IF THIS IS ACCEPTABLE.

 ***WARNING: OVERCONSTRAINT CHECKS: NODE 61 INSTANCE BOOM_1-1 IS USED MORE THAN 
             ONCE AS A SECONDARY NODE IN THE *TIE KEYWORD.  THE CONSTRAINT 
             BETWEEN THIS NODE AND THE MAIN SURFACE WITH NODE 54 INSTANCE BOX-1 
             IS REMOVED.  CHECK IF THIS IS ACCEPTABLE.

 ***WARNING: OVERCONSTRAINT CHECKS: NODE 62 INSTANCE BOOM_1-1 IS USED MORE THAN 
             ONCE AS A SECONDARY NODE IN THE *TIE KEYWORD.  THE CONSTRAINT 
             BETWEEN THIS NODE AND THE MAIN SURFACE WITH NODE 1754 INSTANCE 
             BOX-1 IS REMOVED.  CHECK IF THIS IS ACCEPTABLE.

 ***WARNING: OVERCONSTRAINT CHECKS: NODE 62 INSTANCE BOOM_1-1 IS USED MORE THAN 
             ONCE AS A SECONDARY NODE IN THE *TIE KEYWORD.  THE CONSTRAINT 
             BETWEEN THIS NODE AND THE MAIN SURFACE WITH NODE 1754 INSTANCE 
             BOX-1 IS REMOVED.  CHECK IF THIS IS ACCEPTABLE.

 ***WARNING: OVERCONSTRAINT CHECKS: NODE 63 INSTANCE BOOM_1-1 IS USED MORE THAN 
             ONCE AS A SECONDARY NODE IN THE *TIE KEYWORD.  THE CONSTRAINT 
             BETWEEN THIS NODE AND THE MAIN SURFACE WITH NODE 1754 INSTANCE 
             BOX-1 IS REMOVED.  CHECK IF THIS IS ACCEPTABLE.

 ***WARNING: OVERCONSTRAINT CHECKS: NODE 63 INSTANCE BOOM_1-1 IS USED MORE THAN 
             ONCE AS A SECONDARY NODE IN THE *TIE KEYWORD.  THE CONSTRAINT 
             BETWEEN THIS NODE AND THE MAIN SURFACE WITH NODE 1754 INSTANCE 
             BOX-1 IS REMOVED.  CHECK IF THIS IS ACCEPTABLE.

 ***WARNING: OVERCONSTRAINT CHECKS: NODE 64 INSTANCE BOOM_1-1 IS USED MORE THAN 
             ONCE AS A SECONDARY NODE IN THE *TIE KEYWORD.  THE CONSTRAINT 
             BETWEEN THIS NODE AND THE MAIN SURFACE WITH NODE 1755 INSTANCE 
             BOX-1 IS REMOVED.  CHECK IF THIS IS ACCEPTABLE.

 ***WARNING: OVERCONSTRAINT CHECKS: NODE 64 INSTANCE BOOM_1-1 IS USED MORE THAN 
             ONCE AS A SECONDARY NODE IN THE *TIE KEYWORD.  THE CONSTRAINT 
             BETWEEN THIS NODE AND THE MAIN SURFACE WITH NODE 1755 INSTANCE 
             BOX-1 IS REMOVED.  CHECK IF THIS IS ACCEPTABLE.

 ***WARNING: OVERCONSTRAINT CHECKS: NODE 65 INSTANCE BOOM_1-1 IS USED MORE THAN 
             ONCE AS A SECONDARY NODE IN THE *TIE KEYWORD.  THE CONSTRAINT 
             BETWEEN THIS NODE AND THE MAIN SURFACE WITH NODE 1756 INSTANCE 
             BOX-1 IS REMOVED.  CHECK IF THIS IS ACCEPTABLE.

 ***WARNING: OVERCONSTRAINT CHECKS: NODE 65 INSTANCE BOOM_1-1 IS USED MORE THAN 
             ONCE AS A SECONDARY NODE IN THE *TIE KEYWORD.  THE CONSTRAINT 
             BETWEEN THIS NODE AND THE MAIN SURFACE WITH NODE 1756 INSTANCE 
             BOX-1 IS REMOVED.  CHECK IF THIS IS ACCEPTABLE.

 ***WARNING: OVERCONSTRAINT CHECKS: NODE 66 INSTANCE BOOM_1-1 IS USED MORE THAN 
             ONCE AS A SECONDARY NODE IN THE *TIE KEYWORD.  THE CONSTRAINT 
             BETWEEN THIS NODE AND THE MAIN SURFACE WITH NODE 1756 INSTANCE 
             BOX-1 IS REMOVED.  CHECK IF THIS IS ACCEPTABLE.

 ***WARNING: OVERCONSTRAINT CHECKS: NODE 66 INSTANCE BOOM_1-1 IS USED MORE THAN 
             ONCE AS A SECONDARY NODE IN THE *TIE KEYWORD.  THE CONSTRAINT 
             BETWEEN THIS NODE AND THE MAIN SURFACE WITH NODE 1756 INSTANCE 
             BOX-1 IS REMOVED.  CHECK IF THIS IS ACCEPTABLE.

 ***WARNING: OVERCONSTRAINT CHECKS: NODE 67 INSTANCE BOOM_1-1 IS USED MORE THAN 
             ONCE AS A SECONDARY NODE IN THE *TIE KEYWORD.  THE CONSTRAINT 
             BETWEEN THIS NODE AND THE MAIN SURFACE WITH NODE 1757 INSTANCE 
             BOX-1 IS REMOVED.  CHECK IF THIS IS ACCEPTABLE.

 ***WARNING: OVERCONSTRAINT CHECKS: NODE 67 INSTANCE BOOM_1-1 IS USED MORE THAN 
             ONCE AS A SECONDARY NODE IN THE *TIE KEYWORD.  THE CONSTRAINT 
             BETWEEN THIS NODE AND THE MAIN SURFACE WITH NODE 1757 INSTANCE 
             BOX-1 IS REMOVED.  CHECK IF THIS IS ACCEPTABLE.

 ***WARNING: OVERCONSTRAINT CHECKS: NODE 68 INSTANCE BOOM_1-1 IS USED MORE THAN 
             ONCE AS A SECONDARY NODE IN THE *TIE KEYWORD.  THE CONSTRAINT 
             BETWEEN THIS NODE AND THE MAIN SURFACE WITH NODE 1758 INSTANCE 
             BOX-1 IS REMOVED.  CHECK IF THIS IS ACCEPTABLE.

 ***WARNING: OVERCONSTRAINT CHECKS: NODE 68 INSTANCE BOOM_1-1 IS USED MORE THAN 
             ONCE AS A SECONDARY NODE IN THE *TIE KEYWORD.  THE CONSTRAINT 
             BETWEEN THIS NODE AND THE MAIN SURFACE WITH NODE 1758 INSTANCE 
             BOX-1 IS REMOVED.  CHECK IF THIS IS ACCEPTABLE.

 ***WARNING: OVERCONSTRAINT CHECKS: NODE 69 INSTANCE BOOM_1-1 IS USED MORE THAN 
             ONCE AS A SECONDARY NODE IN THE *TIE KEYWORD.  THE CONSTRAINT 
             BETWEEN THIS NODE AND THE MAIN SURFACE WITH NODE 1758 INSTANCE 
             BOX-1 IS REMOVED.  CHECK IF THIS IS ACCEPTABLE.

 ***WARNING: OVERCONSTRAINT CHECKS: NODE 69 INSTANCE BOOM_1-1 IS USED MORE THAN 
             ONCE AS A SECONDARY NODE IN THE *TIE KEYWORD.  THE CONSTRAINT 
             BETWEEN THIS NODE AND THE MAIN SURFACE WITH NODE 1758 INSTANCE 
             BOX-1 IS REMOVED.  CHECK IF THIS IS ACCEPTABLE.

 ***WARNING: OVERCONSTRAINT CHECKS: NODE 70 INSTANCE BOOM_1-1 IS USED MORE THAN 
             ONCE AS A SECONDARY NODE IN THE *TIE KEYWORD.  THE CONSTRAINT 
             BETWEEN THIS NODE AND THE MAIN SURFACE WITH NODE 1759 INSTANCE 
             BOX-1 IS REMOVED.  CHECK IF THIS IS ACCEPTABLE.

 ***WARNING: OVERCONSTRAINT CHECKS: NODE 70 INSTANCE BOOM_1-1 IS USED MORE THAN 
             ONCE AS A SECONDARY NODE IN THE *TIE KEYWORD.  THE CONSTRAINT 
             BETWEEN THIS NODE AND THE MAIN SURFACE WITH NODE 1759 INSTANCE 
             BOX-1 IS REMOVED.  CHECK IF THIS IS ACCEPTABLE.

 ***WARNING: OVERCONSTRAINT CHECKS: NODE 71 INSTANCE BOOM_1-1 IS USED MORE THAN 
             ONCE AS A SECONDARY NODE IN THE *TIE KEYWORD.  THE CONSTRAINT 
             BETWEEN THIS NODE AND THE MAIN SURFACE WITH NODE 1759 INSTANCE 
             BOX-1 IS REMOVED.  CHECK IF THIS IS ACCEPTABLE.

 ***WARNING: OVERCONSTRAINT CHECKS: NODE 71 INSTANCE BOOM_1-1 IS USED MORE THAN 
             ONCE AS A SECONDARY NODE IN THE *TIE KEYWORD.  THE CONSTRAINT 
             BETWEEN THIS NODE AND THE MAIN SURFACE WITH NODE 1759 INSTANCE 
             BOX-1 IS REMOVED.  CHECK IF THIS IS ACCEPTABLE.

 ***WARNING: OVERCONSTRAINT CHECKS: NODE 72 INSTANCE BOOM_1-1 IS USED MORE THAN 
             ONCE AS A SECONDARY NODE IN THE *TIE KEYWORD.  THE CONSTRAINT 
             BETWEEN THIS NODE AND THE MAIN SURFACE WITH NODE 1760 INSTANCE 
             BOX-1 IS REMOVED.  CHECK IF THIS IS ACCEPTABLE.

 ***WARNING: OVERCONSTRAINT CHECKS: NODE 72 INSTANCE BOOM_1-1 IS USED MORE THAN 
             ONCE AS A SECONDARY NODE IN THE *TIE KEYWORD.  THE CONSTRAINT 
             BETWEEN THIS NODE AND THE MAIN SURFACE WITH NODE 1760 INSTANCE 
             BOX-1 IS REMOVED.  CHECK IF THIS IS ACCEPTABLE.

 ***WARNING: OVERCONSTRAINT CHECKS: NODE 73 INSTANCE BOOM_1-1 IS USED MORE THAN 
             ONCE AS A SECONDARY NODE IN THE *TIE KEYWORD.  THE CONSTRAINT 
             BETWEEN THIS NODE AND THE MAIN SURFACE WITH NODE 1761 INSTANCE 
             BOX-1 IS REMOVED.  CHECK IF THIS IS ACCEPTABLE.

 ***WARNING: OVERCONSTRAINT CHECKS: NODE 73 INSTANCE BOOM_1-1 IS USED MORE THAN 
             ONCE AS A SECONDARY NODE IN THE *TIE KEYWORD.  THE CONSTRAINT 
             BETWEEN THIS NODE AND THE MAIN SURFACE WITH NODE 1761 INSTANCE 
             BOX-1 IS REMOVED.  CHECK IF THIS IS ACCEPTABLE.

 ***WARNING: OVERCONSTRAINT CHECKS: NODE 74 INSTANCE BOOM_1-1 IS USED MORE THAN 
             ONCE AS A SECONDARY NODE IN THE *TIE KEYWORD.  THE CONSTRAINT 
             BETWEEN THIS NODE AND THE MAIN SURFACE WITH NODE 1761 INSTANCE 
             BOX-1 IS REMOVED.  CHECK IF THIS IS ACCEPTABLE.

 ***WARNING: OVERCONSTRAINT CHECKS: NODE 74 INSTANCE BOOM_1-1 IS USED MORE THAN 
             ONCE AS A SECONDARY NODE IN THE *TIE KEYWORD.  THE CONSTRAINT 
             BETWEEN THIS NODE AND THE MAIN SURFACE WITH NODE 1761 INSTANCE 
             BOX-1 IS REMOVED.  CHECK IF THIS IS ACCEPTABLE.

 ***WARNING: OVERCONSTRAINT CHECKS: NODE 75 INSTANCE BOOM_1-1 IS USED MORE THAN 
             ONCE AS A SECONDARY NODE IN THE *TIE KEYWORD.  THE CONSTRAINT 
             BETWEEN THIS NODE AND THE MAIN SURFACE WITH NODE 1762 INSTANCE 
             BOX-1 IS REMOVED.  CHECK IF THIS IS ACCEPTABLE.

 ***WARNING: OVERCONSTRAINT CHECKS: NODE 75 INSTANCE BOOM_1-1 IS USED MORE THAN 
             ONCE AS A SECONDARY NODE IN THE *TIE KEYWORD.  THE CONSTRAINT 
             BETWEEN THIS NODE AND THE MAIN SURFACE WITH NODE 1762 INSTANCE 
             BOX-1 IS REMOVED.  CHECK IF THIS IS ACCEPTABLE.

 ***WARNING: OVERCONSTRAINT CHECKS: NODE 76 INSTANCE BOOM_1-1 IS USED MORE THAN 
             ONCE AS A SECONDARY NODE IN THE *TIE KEYWORD.  THE CONSTRAINT 
             BETWEEN THIS NODE AND THE MAIN SURFACE WITH NODE 1763 INSTANCE 
             BOX-1 IS REMOVED.  CHECK IF THIS IS ACCEPTABLE.

 ***WARNING: OVERCONSTRAINT CHECKS: NODE 76 INSTANCE BOOM_1-1 IS USED MORE THAN 
             ONCE AS A SECONDARY NODE IN THE *TIE KEYWORD.  THE CONSTRAINT 
             BETWEEN THIS NODE AND THE MAIN SURFACE WITH NODE 1763 INSTANCE 
             BOX-1 IS REMOVED.  CHECK IF THIS IS ACCEPTABLE.

 ***WARNING: OVERCONSTRAINT CHECKS: NODE 77 INSTANCE BOOM_1-1 IS USED MORE THAN 
             ONCE AS A SECONDARY NODE IN THE *TIE KEYWORD.  THE CONSTRAINT 
             BETWEEN THIS NODE AND THE MAIN SURFACE WITH NODE 1763 INSTANCE 
             BOX-1 IS REMOVED.  CHECK IF THIS IS ACCEPTABLE.

 ***WARNING: OVERCONSTRAINT CHECKS: NODE 77 INSTANCE BOOM_1-1 IS USED MORE THAN 
             ONCE AS A SECONDARY NODE IN THE *TIE KEYWORD.  THE CONSTRAINT 
             BETWEEN THIS NODE AND THE MAIN SURFACE WITH NODE 1763 INSTANCE 
             BOX-1 IS REMOVED.  CHECK IF THIS IS ACCEPTABLE.

 ***WARNING: OVERCONSTRAINT CHECKS: NODE 78 INSTANCE BOOM_1-1 IS USED MORE THAN 
             ONCE AS A SECONDARY NODE IN THE *TIE KEYWORD.  THE CONSTRAINT 
             BETWEEN THIS NODE AND THE MAIN SURFACE WITH NODE 1764 INSTANCE 
             BOX-1 IS REMOVED.  CHECK IF THIS IS ACCEPTABLE.

 ***WARNING: OVERCONSTRAINT CHECKS: NODE 78 INSTANCE BOOM_1-1 IS USED MORE THAN 
             ONCE AS A SECONDARY NODE IN THE *TIE KEYWORD.  THE CONSTRAINT 
             BETWEEN THIS NODE AND THE MAIN SURFACE WITH NODE 1764 INSTANCE 
             BOX-1 IS REMOVED.  CHECK IF THIS IS ACCEPTABLE.

 ***WARNING: OVERCONSTRAINT CHECKS: NODE 79 INSTANCE BOOM_1-1 IS USED MORE THAN 
             ONCE AS A SECONDARY NODE IN THE *TIE KEYWORD.  THE CONSTRAINT 
             BETWEEN THIS NODE AND THE MAIN SURFACE WITH NODE 1765 INSTANCE 
             BOX-1 IS REMOVED.  CHECK IF THIS IS ACCEPTABLE.

 ***WARNING: OVERCONSTRAINT CHECKS: NODE 79 INSTANCE BOOM_1-1 IS USED MORE THAN 
             ONCE AS A SECONDARY NODE IN THE *TIE KEYWORD.  THE CONSTRAINT 
             BETWEEN THIS NODE AND THE MAIN SURFACE WITH NODE 1765 INSTANCE 
             BOX-1 IS REMOVED.  CHECK IF THIS IS ACCEPTABLE.

 ***WARNING: OVERCONSTRAINT CHECKS: NODE 80 INSTANCE BOOM_1-1 IS USED MORE THAN 
             ONCE AS A SECONDARY NODE IN THE *TIE KEYWORD.  THE CONSTRAINT 
             BETWEEN THIS NODE AND THE MAIN SURFACE WITH NODE 1765 INSTANCE 
             BOX-1 IS REMOVED.  CHECK IF THIS IS ACCEPTABLE.

 ***WARNING: OVERCONSTRAINT CHECKS: NODE 80 INSTANCE BOOM_1-1 IS USED MORE THAN 
             ONCE AS A SECONDARY NODE IN THE *TIE KEYWORD.  THE CONSTRAINT 
             BETWEEN THIS NODE AND THE MAIN SURFACE WITH NODE 1765 INSTANCE 
             BOX-1 IS REMOVED.  CHECK IF THIS IS ACCEPTABLE.

 ***WARNING: OVERCONSTRAINT CHECKS: NODE 81 INSTANCE BOOM_1-1 IS USED MORE THAN 
             ONCE AS A SECONDARY NODE IN THE *TIE KEYWORD.  THE CONSTRAINT 
             BETWEEN THIS NODE AND THE MAIN SURFACE WITH NODE 1766 INSTANCE 
             BOX-1 IS REMOVED.  CHECK IF THIS IS ACCEPTABLE.

 ***WARNING: OVERCONSTRAINT CHECKS: NODE 81 INSTANCE BOOM_1-1 IS USED MORE THAN 
             ONCE AS A SECONDARY NODE IN THE *TIE KEYWORD.  THE CONSTRAINT 
             BETWEEN THIS NODE AND THE MAIN SURFACE WITH NODE 1766 INSTANCE 
             BOX-1 IS REMOVED.  CHECK IF THIS IS ACCEPTABLE.

 ***WARNING: OVERCONSTRAINT CHECKS: NODE 82 INSTANCE BOOM_1-1 IS USED MORE THAN 
             ONCE AS A SECONDARY NODE IN THE *TIE KEYWORD.  THE CONSTRAINT 
             BETWEEN THIS NODE AND THE MAIN SURFACE WITH NODE 1767 INSTANCE 
             BOX-1 IS REMOVED.  CHECK IF THIS IS ACCEPTABLE.

 ***WARNING: OVERCONSTRAINT CHECKS: NODE 82 INSTANCE BOOM_1-1 IS USED MORE THAN 
             ONCE AS A SECONDARY NODE IN THE *TIE KEYWORD.  THE CONSTRAINT 
             BETWEEN THIS NODE AND THE MAIN SURFACE WITH NODE 1767 INSTANCE 
             BOX-1 IS REMOVED.  CHECK IF THIS IS ACCEPTABLE.

 ***WARNING: OVERCONSTRAINT CHECKS: NODE 83 INSTANCE BOOM_1-1 IS USED MORE THAN 
             ONCE AS A SECONDARY NODE IN THE *TIE KEYWORD.  THE CONSTRAINT 
             BETWEEN THIS NODE AND THE MAIN SURFACE WITH NODE 1767 INSTANCE 
             BOX-1 IS REMOVED.  CHECK IF THIS IS ACCEPTABLE.

 ***WARNING: OVERCONSTRAINT CHECKS: NODE 83 INSTANCE BOOM_1-1 IS USED MORE THAN 
             ONCE AS A SECONDARY NODE IN THE *TIE KEYWORD.  THE CONSTRAINT 
             BETWEEN THIS NODE AND THE MAIN SURFACE WITH NODE 1767 INSTANCE 
             BOX-1 IS REMOVED.  CHECK IF THIS IS ACCEPTABLE.

 ***WARNING: OVERCONSTRAINT CHECKS: NODE 84 INSTANCE BOOM_1-1 IS USED MORE THAN 
             ONCE AS A SECONDARY NODE IN THE *TIE KEYWORD.  THE CONSTRAINT 
             BETWEEN THIS NODE AND THE MAIN SURFACE WITH NODE 1768 INSTANCE 
             BOX-1 IS REMOVED.  CHECK IF THIS IS ACCEPTABLE.

 ***WARNING: OVERCONSTRAINT CHECKS: NODE 84 INSTANCE BOOM_1-1 IS USED MORE THAN 
             ONCE AS A SECONDARY NODE IN THE *TIE KEYWORD.  THE CONSTRAINT 
             BETWEEN THIS NODE AND THE MAIN SURFACE WITH NODE 1768 INSTANCE 
             BOX-1 IS REMOVED.  CHECK IF THIS IS ACCEPTABLE.

 ***WARNING: OVERCONSTRAINT CHECKS: NODE 85 INSTANCE BOOM_1-1 IS USED MORE THAN 
             ONCE AS A SECONDARY NODE IN THE *TIE KEYWORD.  THE CONSTRAINT 
             BETWEEN THIS NODE AND THE MAIN SURFACE WITH NODE 1768 INSTANCE 
             BOX-1 IS REMOVED.  CHECK IF THIS IS ACCEPTABLE.

 ***WARNING: OVERCONSTRAINT CHECKS: NODE 85 INSTANCE BOOM_1-1 IS USED MORE THAN 
             ONCE AS A SECONDARY NODE IN THE *TIE KEYWORD.  THE CONSTRAINT 
             BETWEEN THIS NODE AND THE MAIN SURFACE WITH NODE 1768 INSTANCE 
             BOX-1 IS REMOVED.  CHECK IF THIS IS ACCEPTABLE.

 ***WARNING: OVERCONSTRAINT CHECKS: NODE 86 INSTANCE BOOM_1-1 IS USED MORE THAN 
             ONCE AS A SECONDARY NODE IN THE *TIE KEYWORD.  THE CONSTRAINT 
             BETWEEN THIS NODE AND THE MAIN SURFACE WITH NODE 1769 INSTANCE 
             BOX-1 IS REMOVED.  CHECK IF THIS IS ACCEPTABLE.

 ***WARNING: OVERCONSTRAINT CHECKS: NODE 86 INSTANCE BOOM_1-1 IS USED MORE THAN 
             ONCE AS A SECONDARY NODE IN THE *TIE KEYWORD.  THE CONSTRAINT 
             BETWEEN THIS NODE AND THE MAIN SURFACE WITH NODE 1769 INSTANCE 
             BOX-1 IS REMOVED.  CHECK IF THIS IS ACCEPTABLE.

 ***WARNING: OVERCONSTRAINT CHECKS: NODE 87 INSTANCE BOOM_1-1 IS USED MORE THAN 
             ONCE AS A SECONDARY NODE IN THE *TIE KEYWORD.  THE CONSTRAINT 
             BETWEEN THIS NODE AND THE MAIN SURFACE WITH NODE 50 INSTANCE BOX-1 
             IS REMOVED.  CHECK IF THIS IS ACCEPTABLE.

 ***WARNING: OVERCONSTRAINT CHECKS: NODE 87 INSTANCE BOOM_1-1 IS USED MORE THAN 
             ONCE AS A SECONDARY NODE IN THE *TIE KEYWORD.  THE CONSTRAINT 
             BETWEEN THIS NODE AND THE MAIN SURFACE WITH NODE 50 INSTANCE BOX-1 
             IS REMOVED.  CHECK IF THIS IS ACCEPTABLE.

 ***WARNING: OVERCONSTRAINT CHECKS: NODE 88 INSTANCE BOOM_1-1 IS USED MORE THAN 
             ONCE AS A SECONDARY NODE IN THE *TIE KEYWORD.  THE CONSTRAINT 
             BETWEEN THIS NODE AND THE MAIN SURFACE WITH NODE 50 INSTANCE BOX-1 
             IS REMOVED.  CHECK IF THIS IS ACCEPTABLE.

 ***WARNING: OVERCONSTRAINT CHECKS: NODE 88 INSTANCE BOOM_1-1 IS USED MORE THAN 
             ONCE AS A SECONDARY NODE IN THE *TIE KEYWORD.  THE CONSTRAINT 
             BETWEEN THIS NODE AND THE MAIN SURFACE WITH NODE 50 INSTANCE BOX-1 
             IS REMOVED.  CHECK IF THIS IS ACCEPTABLE.

 ***WARNING: OVERCONSTRAINT CHECKS: NODE 89 INSTANCE BOOM_1-1 IS USED MORE THAN 
             ONCE AS A SECONDARY NODE IN THE *TIE KEYWORD.  THE CONSTRAINT 
             BETWEEN THIS NODE AND THE MAIN SURFACE WITH NODE 50 INSTANCE BOX-1 
             IS REMOVED.  CHECK IF THIS IS ACCEPTABLE.

 ***WARNING: OVERCONSTRAINT CHECKS: NODE 89 INSTANCE BOOM_1-1 IS USED MORE THAN 
             ONCE AS A SECONDARY NODE IN THE *TIE KEYWORD.  THE CONSTRAINT 
             BETWEEN THIS NODE AND THE MAIN SURFACE WITH NODE 50 INSTANCE BOX-1 
             IS REMOVED.  CHECK IF THIS IS ACCEPTABLE.

 ***WARNING: OVERCONSTRAINT CHECKS: NODE 90 INSTANCE BOOM_1-1 IS USED MORE THAN 
             ONCE AS A SECONDARY NODE IN THE *TIE KEYWORD.  THE CONSTRAINT 
             BETWEEN THIS NODE AND THE MAIN SURFACE WITH NODE 1594 INSTANCE 
             BOX-1 IS REMOVED.  CHECK IF THIS IS ACCEPTABLE.

 ***WARNING: OVERCONSTRAINT CHECKS: NODE 90 INSTANCE BOOM_1-1 IS USED MORE THAN 
             ONCE AS A SECONDARY NODE IN THE *TIE KEYWORD.  THE CONSTRAINT 
             BETWEEN THIS NODE AND THE MAIN SURFACE WITH NODE 1594 INSTANCE 
             BOX-1 IS REMOVED.  CHECK IF THIS IS ACCEPTABLE.

 ***WARNING: OVERCONSTRAINT CHECKS: NODE 91 INSTANCE BOOM_1-1 IS USED MORE THAN 
             ONCE AS A SECONDARY NODE IN THE *TIE KEYWORD.  THE CONSTRAINT 
             BETWEEN THIS NODE AND THE MAIN SURFACE WITH NODE 1594 INSTANCE 
             BOX-1 IS REMOVED.  CHECK IF THIS IS ACCEPTABLE.

 ***WARNING: OVERCONSTRAINT CHECKS: NODE 91 INSTANCE BOOM_1-1 IS USED MORE THAN 
             ONCE AS A SECONDARY NODE IN THE *TIE KEYWORD.  THE CONSTRAINT 
             BETWEEN THIS NODE AND THE MAIN SURFACE WITH NODE 1594 INSTANCE 
             BOX-1 IS REMOVED.  CHECK IF THIS IS ACCEPTABLE.

 ***WARNING: OVERCONSTRAINT CHECKS: NODE 92 INSTANCE BOOM_1-1 IS USED MORE THAN 
             ONCE AS A SECONDARY NODE IN THE *TIE KEYWORD.  THE CONSTRAINT 
             BETWEEN THIS NODE AND THE MAIN SURFACE WITH NODE 1595 INSTANCE 
             BOX-1 IS REMOVED.  CHECK IF THIS IS ACCEPTABLE.

 ***WARNING: OVERCONSTRAINT CHECKS: NODE 92 INSTANCE BOOM_1-1 IS USED MORE THAN 
             ONCE AS A SECONDARY NODE IN THE *TIE KEYWORD.  THE CONSTRAINT 
             BETWEEN THIS NODE AND THE MAIN SURFACE WITH NODE 1595 INSTANCE 
             BOX-1 IS REMOVED.  CHECK IF THIS IS ACCEPTABLE.

 ***WARNING: OVERCONSTRAINT CHECKS: NODE 93 INSTANCE BOOM_1-1 IS USED MORE THAN 
             ONCE AS A SECONDARY NODE IN THE *TIE KEYWORD.  THE CONSTRAINT 
             BETWEEN THIS NODE AND THE MAIN SURFACE WITH NODE 1596 INSTANCE 
             BOX-1 IS REMOVED.  CHECK IF THIS IS ACCEPTABLE.

 ***WARNING: OVERCONSTRAINT CHECKS: NODE 93 INSTANCE BOOM_1-1 IS USED MORE THAN 
             ONCE AS A SECONDARY NODE IN THE *TIE KEYWORD.  THE CONSTRAINT 
             BETWEEN THIS NODE AND THE MAIN SURFACE WITH NODE 1596 INSTANCE 
             BOX-1 IS REMOVED.  CHECK IF THIS IS ACCEPTABLE.

 ***WARNING: OVERCONSTRAINT CHECKS: NODE 94 INSTANCE BOOM_1-1 IS USED MORE THAN 
             ONCE AS A SECONDARY NODE IN THE *TIE KEYWORD.  THE CONSTRAINT 
             BETWEEN THIS NODE AND THE MAIN SURFACE WITH NODE 1596 INSTANCE 
             BOX-1 IS REMOVED.  CHECK IF THIS IS ACCEPTABLE.

 ***WARNING: OVERCONSTRAINT CHECKS: NODE 94 INSTANCE BOOM_1-1 IS USED MORE THAN 
             ONCE AS A SECONDARY NODE IN THE *TIE KEYWORD.  THE CONSTRAINT 
             BETWEEN THIS NODE AND THE MAIN SURFACE WITH NODE 1596 INSTANCE 
             BOX-1 IS REMOVED.  CHECK IF THIS IS ACCEPTABLE.

 ***WARNING: OVERCONSTRAINT CHECKS: NODE 95 INSTANCE BOOM_1-1 IS USED MORE THAN 
             ONCE AS A SECONDARY NODE IN THE *TIE KEYWORD.  THE CONSTRAINT 
             BETWEEN THIS NODE AND THE MAIN SURFACE WITH NODE 1597 INSTANCE 
             BOX-1 IS REMOVED.  CHECK IF THIS IS ACCEPTABLE.

 ***WARNING: OVERCONSTRAINT CHECKS: NODE 95 INSTANCE BOOM_1-1 IS USED MORE THAN 
             ONCE AS A SECONDARY NODE IN THE *TIE KEYWORD.  THE CONSTRAINT 
             BETWEEN THIS NODE AND THE MAIN SURFACE WITH NODE 1597 INSTANCE 
             BOX-1 IS REMOVED.  CHECK IF THIS IS ACCEPTABLE.

 ***WARNING: OVERCONSTRAINT CHECKS: NODE 96 INSTANCE BOOM_1-1 IS USED MORE THAN 
             ONCE AS A SECONDARY NODE IN THE *TIE KEYWORD.  THE CONSTRAINT 
             BETWEEN THIS NODE AND THE MAIN SURFACE WITH NODE 1598 INSTANCE 
             BOX-1 IS REMOVED.  CHECK IF THIS IS ACCEPTABLE.

 ***WARNING: OVERCONSTRAINT CHECKS: NODE 96 INSTANCE BOOM_1-1 IS USED MORE THAN 
             ONCE AS A SECONDARY NODE IN THE *TIE KEYWORD.  THE CONSTRAINT 
             BETWEEN THIS NODE AND THE MAIN SURFACE WITH NODE 1598 INSTANCE 
             BOX-1 IS REMOVED.  CHECK IF THIS IS ACCEPTABLE.

 ***WARNING: OVERCONSTRAINT CHECKS: NODE 97 INSTANCE BOOM_1-1 IS USED MORE THAN 
             ONCE AS A SECONDARY NODE IN THE *TIE KEYWORD.  THE CONSTRAINT 
             BETWEEN THIS NODE AND THE MAIN SURFACE WITH NODE 1598 INSTANCE 
             BOX-1 IS REMOVED.  CHECK IF THIS IS ACCEPTABLE.

 ***WARNING: OVERCONSTRAINT CHECKS: NODE 97 INSTANCE BOOM_1-1 IS USED MORE THAN 
             ONCE AS A SECONDARY NODE IN THE *TIE KEYWORD.  THE CONSTRAINT 
             BETWEEN THIS NODE AND THE MAIN SURFACE WITH NODE 1598 INSTANCE 
             BOX-1 IS REMOVED.  CHECK IF THIS IS ACCEPTABLE.

 ***WARNING: OVERCONSTRAINT CHECKS: NODE 98 INSTANCE BOOM_1-1 IS USED MORE THAN 
             ONCE AS A SECONDARY NODE IN THE *TIE KEYWORD.  THE CONSTRAINT 
             BETWEEN THIS NODE AND THE MAIN SURFACE WITH NODE 1599 INSTANCE 
             BOX-1 IS REMOVED.  CHECK IF THIS IS ACCEPTABLE.

 ***WARNING: OVERCONSTRAINT CHECKS: NODE 98 INSTANCE BOOM_1-1 IS USED MORE THAN 
             ONCE AS A SECONDARY NODE IN THE *TIE KEYWORD.  THE CONSTRAINT 
             BETWEEN THIS NODE AND THE MAIN SURFACE WITH NODE 1599 INSTANCE 
             BOX-1 IS REMOVED.  CHECK IF THIS IS ACCEPTABLE.

 ***WARNING: OVERCONSTRAINT CHECKS: NODE 99 INSTANCE BOOM_1-1 IS USED MORE THAN 
             ONCE AS A SECONDARY NODE IN THE *TIE KEYWORD.  THE CONSTRAINT 
             BETWEEN THIS NODE AND THE MAIN SURFACE WITH NODE 1599 INSTANCE 
             BOX-1 IS REMOVED.  CHECK IF THIS IS ACCEPTABLE.

 ***WARNING: OVERCONSTRAINT CHECKS: NODE 99 INSTANCE BOOM_1-1 IS USED MORE THAN 
             ONCE AS A SECONDARY NODE IN THE *TIE KEYWORD.  THE CONSTRAINT 
             BETWEEN THIS NODE AND THE MAIN SURFACE WITH NODE 1599 INSTANCE 
             BOX-1 IS REMOVED.  CHECK IF THIS IS ACCEPTABLE.

 ***WARNING: OVERCONSTRAINT CHECKS: NODE 100 INSTANCE BOOM_1-1 IS USED MORE 
             THAN ONCE AS A SECONDARY NODE IN THE *TIE KEYWORD.  THE CONSTRAINT 
             BETWEEN THIS NODE AND THE MAIN SURFACE WITH NODE 1600 INSTANCE 
             BOX-1 IS REMOVED.  CHECK IF THIS IS ACCEPTABLE.

 ***WARNING: OVERCONSTRAINT CHECKS: NODE 100 INSTANCE BOOM_1-1 IS USED MORE 
             THAN ONCE AS A SECONDARY NODE IN THE *TIE KEYWORD.  THE CONSTRAINT 
             BETWEEN THIS NODE AND THE MAIN SURFACE WITH NODE 1600 INSTANCE 
             BOX-1 IS REMOVED.  CHECK IF THIS IS ACCEPTABLE.

 ***WARNING: OVERCONSTRAINT CHECKS: NODE 101 INSTANCE BOOM_1-1 IS USED MORE 
             THAN ONCE AS A SECONDARY NODE IN THE *TIE KEYWORD.  THE CONSTRAINT 
             BETWEEN THIS NODE AND THE MAIN SURFACE WITH NODE 1601 INSTANCE 
             BOX-1 IS REMOVED.  CHECK IF THIS IS ACCEPTABLE.

 ***WARNING: OVERCONSTRAINT CHECKS: NODE 101 INSTANCE BOOM_1-1 IS USED MORE 
             THAN ONCE AS A SECONDARY NODE IN THE *TIE KEYWORD.  THE CONSTRAINT 
             BETWEEN THIS NODE AND THE MAIN SURFACE WITH NODE 1601 INSTANCE 
             BOX-1 IS REMOVED.  CHECK IF THIS IS ACCEPTABLE.

 ***WARNING: OVERCONSTRAINT CHECKS: NODE 102 INSTANCE BOOM_1-1 IS USED MORE 
             THAN ONCE AS A SECONDARY NODE IN THE *TIE KEYWORD.  THE CONSTRAINT 
             BETWEEN THIS NODE AND THE MAIN SURFACE WITH NODE 1601 INSTANCE 
             BOX-1 IS REMOVED.  CHECK IF THIS IS ACCEPTABLE.

 ***WARNING: OVERCONSTRAINT CHECKS: NODE 102 INSTANCE BOOM_1-1 IS USED MORE 
             THAN ONCE AS A SECONDARY NODE IN THE *TIE KEYWORD.  THE CONSTRAINT 
             BETWEEN THIS NODE AND THE MAIN SURFACE WITH NODE 1601 INSTANCE 
             BOX-1 IS REMOVED.  CHECK IF THIS IS ACCEPTABLE.

 ***WARNING: OVERCONSTRAINT CHECKS: NODE 103 INSTANCE BOOM_1-1 IS USED MORE 
             THAN ONCE AS A SECONDARY NODE IN THE *TIE KEYWORD.  THE CONSTRAINT 
             BETWEEN THIS NODE AND THE MAIN SURFACE WITH NODE 1602 INSTANCE 
             BOX-1 IS REMOVED.  CHECK IF THIS IS ACCEPTABLE.

 ***WARNING: OVERCONSTRAINT CHECKS: NODE 103 INSTANCE BOOM_1-1 IS USED MORE 
             THAN ONCE AS A SECONDARY NODE IN THE *TIE KEYWORD.  THE CONSTRAINT 
             BETWEEN THIS NODE AND THE MAIN SURFACE WITH NODE 1602 INSTANCE 
             BOX-1 IS REMOVED.  CHECK IF THIS IS ACCEPTABLE.

 ***WARNING: OVERCONSTRAINT CHECKS: NODE 104 INSTANCE BOOM_1-1 IS USED MORE 
             THAN ONCE AS A SECONDARY NODE IN THE *TIE KEYWORD.  THE CONSTRAINT 
             BETWEEN THIS NODE AND THE MAIN SURFACE WITH NODE 1603 INSTANCE 
             BOX-1 IS REMOVED.  CHECK IF THIS IS ACCEPTABLE.

 ***WARNING: OVERCONSTRAINT CHECKS: NODE 104 INSTANCE BOOM_1-1 IS USED MORE 
             THAN ONCE AS A SECONDARY NODE IN THE *TIE KEYWORD.  THE CONSTRAINT 
             BETWEEN THIS NODE AND THE MAIN SURFACE WITH NODE 1603 INSTANCE 
             BOX-1 IS REMOVED.  CHECK IF THIS IS ACCEPTABLE.

 ***WARNING: OVERCONSTRAINT CHECKS: NODE 105 INSTANCE BOOM_1-1 IS USED MORE 
             THAN ONCE AS A SECONDARY NODE IN THE *TIE KEYWORD.  THE CONSTRAINT 
             BETWEEN THIS NODE AND THE MAIN SURFACE WITH NODE 1603 INSTANCE 
             BOX-1 IS REMOVED.  CHECK IF THIS IS ACCEPTABLE.

 ***WARNING: OVERCONSTRAINT CHECKS: NODE 105 INSTANCE BOOM_1-1 IS USED MORE 
             THAN ONCE AS A SECONDARY NODE IN THE *TIE KEYWORD.  THE CONSTRAINT 
             BETWEEN THIS NODE AND THE MAIN SURFACE WITH NODE 1603 INSTANCE 
             BOX-1 IS REMOVED.  CHECK IF THIS IS ACCEPTABLE.

[...]

 ***WARNING: OVERCONSTRAINT CHECKS: NODE 264 INSTANCE BOOM_1-2 IS USED MORE 
             THAN ONCE AS A SECONDARY NODE IN THE *TIE KEYWORD.  THE CONSTRAINT 
             BETWEEN THIS NODE AND THE MAIN SURFACE WITH NODE 2598 INSTANCE 
             BOX-1 IS REMOVED.  CHECK IF THIS IS ACCEPTABLE.

 ***WARNING: OVERCONSTRAINT CHECKS: NODE 264 INSTANCE BOOM_1-2 IS USED MORE 
             THAN ONCE AS A SECONDARY NODE IN THE *TIE KEYWORD.  THE CONSTRAINT 
             BETWEEN THIS NODE AND THE MAIN SURFACE WITH NODE 2598 INSTANCE 
             BOX-1 IS REMOVED.  CHECK IF THIS IS ACCEPTABLE.

 ***WARNING: OVERCONSTRAINT CHECKS: NODE 265 INSTANCE BOOM_1-2 IS USED MORE 
             THAN ONCE AS A SECONDARY NODE IN THE *TIE KEYWORD.  THE CONSTRAINT 
             BETWEEN THIS NODE AND THE MAIN SURFACE WITH NODE 2598 INSTANCE 
             BOX-1 IS REMOVED.  CHECK IF THIS IS ACCEPTABLE.

 ***WARNING: OVERCONSTRAINT CHECKS: NODE 265 INSTANCE BOOM_1-2 IS USED MORE 
             THAN ONCE AS A SECONDARY NODE IN THE *TIE KEYWORD.  THE CONSTRAINT 
             BETWEEN THIS NODE AND THE MAIN SURFACE WITH NODE 2598 INSTANCE 
             BOX-1 IS REMOVED.  CHECK IF THIS IS ACCEPTABLE.

 ***WARNING: OVERCONSTRAINT CHECKS: NODE 266 INSTANCE BOOM_1-2 IS USED MORE 
             THAN ONCE AS A SECONDARY NODE IN THE *TIE KEYWORD.  THE CONSTRAINT 
             BETWEEN THIS NODE AND THE MAIN SURFACE WITH NODE 2597 INSTANCE 
             BOX-1 IS REMOVED.  CHECK IF THIS IS ACCEPTABLE.

 ***WARNING: OVERCONSTRAINT CHECKS: NODE 266 INSTANCE BOOM_1-2 IS USED MORE 
             THAN ONCE AS A SECONDARY NODE IN THE *TIE KEYWORD.  THE CONSTRAINT 
             BETWEEN THIS NODE AND THE MAIN SURFACE WITH NODE 2597 INSTANCE 
             BOX-1 IS REMOVED.  CHECK IF THIS IS ACCEPTABLE.

 ***WARNING: OVERCONSTRAINT CHECKS: NODE 267 INSTANCE BOOM_1-2 IS USED MORE 
             THAN ONCE AS A SECONDARY NODE IN THE *TIE KEYWORD.  THE CONSTRAINT 
             BETWEEN THIS NODE AND THE MAIN SURFACE WITH NODE 2596 INSTANCE 
             BOX-1 IS REMOVED.  CHECK IF THIS IS ACCEPTABLE.

 ***WARNING: OVERCONSTRAINT CHECKS: NODE 267 INSTANCE BOOM_1-2 IS USED MORE 
             THAN ONCE AS A SECONDARY NODE IN THE *TIE KEYWORD.  THE CONSTRAINT 
             BETWEEN THIS NODE AND THE MAIN SURFACE WITH NODE 2596 INSTANCE 
             BOX-1 IS REMOVED.  CHECK IF THIS IS ACCEPTABLE.

 ***WARNING: OVERCONSTRAINT CHECKS: NODE 268 INSTANCE BOOM_1-2 IS USED MORE 
             THAN ONCE AS A SECONDARY NODE IN THE *TIE KEYWORD.  THE CONSTRAINT 
             BETWEEN THIS NODE AND THE MAIN SURFACE WITH NODE 2596 INSTANCE 
             BOX-1 IS REMOVED.  CHECK IF THIS IS ACCEPTABLE.

 ***WARNING: OVERCONSTRAINT CHECKS: NODE 268 INSTANCE BOOM_1-2 IS USED MORE 
             THAN ONCE AS A SECONDARY NODE IN THE *TIE KEYWORD.  THE CONSTRAINT 
             BETWEEN THIS NODE AND THE MAIN SURFACE WITH NODE 2596 INSTANCE 
             BOX-1 IS REMOVED.  CHECK IF THIS IS ACCEPTABLE.

 ***WARNING: OVERCONSTRAINT CHECKS: NODE 269 INSTANCE BOOM_1-2 IS USED MORE 
             THAN ONCE AS A SECONDARY NODE IN THE *TIE KEYWORD.  THE CONSTRAINT 
             BETWEEN THIS NODE AND THE MAIN SURFACE WITH NODE 2595 INSTANCE 
             BOX-1 IS REMOVED.  CHECK IF THIS IS ACCEPTABLE.

 ***WARNING: OVERCONSTRAINT CHECKS: NODE 269 INSTANCE BOOM_1-2 IS USED MORE 
             THAN ONCE AS A SECONDARY NODE IN THE *TIE KEYWORD.  THE CONSTRAINT 
             BETWEEN THIS NODE AND THE MAIN SURFACE WITH NODE 2595 INSTANCE 
             BOX-1 IS REMOVED.  CHECK IF THIS IS ACCEPTABLE.

 ***WARNING: OVERCONSTRAINT CHECKS: NODE 270 INSTANCE BOOM_1-2 IS USED MORE 
             THAN ONCE AS A SECONDARY NODE IN THE *TIE KEYWORD.  THE CONSTRAINT 
             BETWEEN THIS NODE AND THE MAIN SURFACE WITH NODE 2594 INSTANCE 
             BOX-1 IS REMOVED.  CHECK IF THIS IS ACCEPTABLE.

 ***WARNING: OVERCONSTRAINT CHECKS: NODE 270 INSTANCE BOOM_1-2 IS USED MORE 
             THAN ONCE AS A SECONDARY NODE IN THE *TIE KEYWORD.  THE CONSTRAINT 
             BETWEEN THIS NODE AND THE MAIN SURFACE WITH NODE 2594 INSTANCE 
             BOX-1 IS REMOVED.  CHECK IF THIS IS ACCEPTABLE.

 ***WARNING: OVERCONSTRAINT CHECKS: NODE 271 INSTANCE BOOM_1-2 IS USED MORE 
             THAN ONCE AS A SECONDARY NODE IN THE *TIE KEYWORD.  THE CONSTRAINT 
             BETWEEN THIS NODE AND THE MAIN SURFACE WITH NODE 2594 INSTANCE 
             BOX-1 IS REMOVED.  CHECK IF THIS IS ACCEPTABLE.

 ***WARNING: OVERCONSTRAINT CHECKS: NODE 271 INSTANCE BOOM_1-2 IS USED MORE 
             THAN ONCE AS A SECONDARY NODE IN THE *TIE KEYWORD.  THE CONSTRAINT 
             BETWEEN THIS NODE AND THE MAIN SURFACE WITH NODE 2594 INSTANCE 
             BOX-1 IS REMOVED.  CHECK IF THIS IS ACCEPTABLE.

 ***WARNING: OVERCONSTRAINT CHECKS: NODE 272 INSTANCE BOOM_1-2 IS USED MORE 
             THAN ONCE AS A SECONDARY NODE IN THE *TIE KEYWORD.  THE CONSTRAINT 
             BETWEEN THIS NODE AND THE MAIN SURFACE WITH NODE 2593 INSTANCE 
             BOX-1 IS REMOVED.  CHECK IF THIS IS ACCEPTABLE.

 ***WARNING: OVERCONSTRAINT CHECKS: NODE 272 INSTANCE BOOM_1-2 IS USED MORE 
             THAN ONCE AS A SECONDARY NODE IN THE *TIE KEYWORD.  THE CONSTRAINT 
             BETWEEN THIS NODE AND THE MAIN SURFACE WITH NODE 2593 INSTANCE 
             BOX-1 IS REMOVED.  CHECK IF THIS IS ACCEPTABLE.

 ***WARNING: OVERCONSTRAINT CHECKS: NODE 273 INSTANCE BOOM_1-2 IS USED MORE 
             THAN ONCE AS A SECONDARY NODE IN THE *TIE KEYWORD.  THE CONSTRAINT 
             BETWEEN THIS NODE AND THE MAIN SURFACE WITH NODE 2593 INSTANCE 
             BOX-1 IS REMOVED.  CHECK IF THIS IS ACCEPTABLE.

 ***WARNING: OVERCONSTRAINT CHECKS: NODE 273 INSTANCE BOOM_1-2 IS USED MORE 
             THAN ONCE AS A SECONDARY NODE IN THE *TIE KEYWORD.  THE CONSTRAINT 
             BETWEEN THIS NODE AND THE MAIN SURFACE WITH NODE 2593 INSTANCE 
             BOX-1 IS REMOVED.  CHECK IF THIS IS ACCEPTABLE.

 ***WARNING: OVERCONSTRAINT CHECKS: NODE 274 INSTANCE BOOM_1-2 IS USED MORE 
             THAN ONCE AS A SECONDARY NODE IN THE *TIE KEYWORD.  THE CONSTRAINT 
             BETWEEN THIS NODE AND THE MAIN SURFACE WITH NODE 2592 INSTANCE 
             BOX-1 IS REMOVED.  CHECK IF THIS IS ACCEPTABLE.

 ***WARNING: OVERCONSTRAINT CHECKS: NODE 274 INSTANCE BOOM_1-2 IS USED MORE 
             THAN ONCE AS A SECONDARY NODE IN THE *TIE KEYWORD.  THE CONSTRAINT 
             BETWEEN THIS NODE AND THE MAIN SURFACE WITH NODE 2592 INSTANCE 
             BOX-1 IS REMOVED.  CHECK IF THIS IS ACCEPTABLE.

 ***WARNING: OVERCONSTRAINT CHECKS: NODE 275 INSTANCE BOOM_1-2 IS USED MORE 
             THAN ONCE AS A SECONDARY NODE IN THE *TIE KEYWORD.  THE CONSTRAINT 
             BETWEEN THIS NODE AND THE MAIN SURFACE WITH NODE 2591 INSTANCE 
             BOX-1 IS REMOVED.  CHECK IF THIS IS ACCEPTABLE.

 ***WARNING: OVERCONSTRAINT CHECKS: NODE 275 INSTANCE BOOM_1-2 IS USED MORE 
             THAN ONCE AS A SECONDARY NODE IN THE *TIE KEYWORD.  THE CONSTRAINT 
             BETWEEN THIS NODE AND THE MAIN SURFACE WITH NODE 2591 INSTANCE 
             BOX-1 IS REMOVED.  CHECK IF THIS IS ACCEPTABLE.

 ***WARNING: OVERCONSTRAINT CHECKS: NODE 276 INSTANCE BOOM_1-2 IS USED MORE 
             THAN ONCE AS A SECONDARY NODE IN THE *TIE KEYWORD.  THE CONSTRAINT 
             BETWEEN THIS NODE AND THE MAIN SURFACE WITH NODE 2591 INSTANCE 
             BOX-1 IS REMOVED.  CHECK IF THIS IS ACCEPTABLE.

 ***WARNING: OVERCONSTRAINT CHECKS: NODE 276 INSTANCE BOOM_1-2 IS USED MORE 
             THAN ONCE AS A SECONDARY NODE IN THE *TIE KEYWORD.  THE CONSTRAINT 
             BETWEEN THIS NODE AND THE MAIN SURFACE WITH NODE 2591 INSTANCE 
             BOX-1 IS REMOVED.  CHECK IF THIS IS ACCEPTABLE.

 ***WARNING: OVERCONSTRAINT CHECKS: NODE 277 INSTANCE BOOM_1-2 IS USED MORE 
             THAN ONCE AS A SECONDARY NODE IN THE *TIE KEYWORD.  THE CONSTRAINT 
             BETWEEN THIS NODE AND THE MAIN SURFACE WITH NODE 2590 INSTANCE 
             BOX-1 IS REMOVED.  CHECK IF THIS IS ACCEPTABLE.

 ***WARNING: OVERCONSTRAINT CHECKS: NODE 277 INSTANCE BOOM_1-2 IS USED MORE 
             THAN ONCE AS A SECONDARY NODE IN THE *TIE KEYWORD.  THE CONSTRAINT 
             BETWEEN THIS NODE AND THE MAIN SURFACE WITH NODE 2590 INSTANCE 
             BOX-1 IS REMOVED.  CHECK IF THIS IS ACCEPTABLE.

 ***WARNING: OVERCONSTRAINT CHECKS: NODE 278 INSTANCE BOOM_1-2 IS USED MORE 
             THAN ONCE AS A SECONDARY NODE IN THE *TIE KEYWORD.  THE CONSTRAINT 
             BETWEEN THIS NODE AND THE MAIN SURFACE WITH NODE 2589 INSTANCE 
             BOX-1 IS REMOVED.  CHECK IF THIS IS ACCEPTABLE.

 ***WARNING: OVERCONSTRAINT CHECKS: NODE 278 INSTANCE BOOM_1-2 IS USED MORE 
             THAN ONCE AS A SECONDARY NODE IN THE *TIE KEYWORD.  THE CONSTRAINT 
             BETWEEN THIS NODE AND THE MAIN SURFACE WITH NODE 2589 INSTANCE 
             BOX-1 IS REMOVED.  CHECK IF THIS IS ACCEPTABLE.

 ***WARNING: OVERCONSTRAINT CHECKS: NODE 279 INSTANCE BOOM_1-2 IS USED MORE 
             THAN ONCE AS A SECONDARY NODE IN THE *TIE KEYWORD.  THE CONSTRAINT 
             BETWEEN THIS NODE AND THE MAIN SURFACE WITH NODE 2589 INSTANCE 
             BOX-1 IS REMOVED.  CHECK IF THIS IS ACCEPTABLE.

 ***WARNING: OVERCONSTRAINT CHECKS: NODE 279 INSTANCE BOOM_1-2 IS USED MORE 
             THAN ONCE AS A SECONDARY NODE IN THE *TIE KEYWORD.  THE CONSTRAINT 
             BETWEEN THIS NODE AND THE MAIN SURFACE WITH NODE 2589 INSTANCE 
             BOX-1 IS REMOVED.  CHECK IF THIS IS ACCEPTABLE.

 ***WARNING: OVERCONSTRAINT CHECKS: NODE 280 INSTANCE BOOM_1-2 IS USED MORE 
             THAN ONCE AS A SECONDARY NODE IN THE *TIE KEYWORD.  THE CONSTRAINT 
             BETWEEN THIS NODE AND THE MAIN SURFACE WITH NODE 2588 INSTANCE 
             BOX-1 IS REMOVED.  CHECK IF THIS IS ACCEPTABLE.

 ***WARNING: OVERCONSTRAINT CHECKS: NODE 280 INSTANCE BOOM_1-2 IS USED MORE 
             THAN ONCE AS A SECONDARY NODE IN THE *TIE KEYWORD.  THE CONSTRAINT 
             BETWEEN THIS NODE AND THE MAIN SURFACE WITH NODE 2588 INSTANCE 
             BOX-1 IS REMOVED.  CHECK IF THIS IS ACCEPTABLE.

 ***WARNING: OVERCONSTRAINT CHECKS: NODE 281 INSTANCE BOOM_1-2 IS USED MORE 
             THAN ONCE AS A SECONDARY NODE IN THE *TIE KEYWORD.  THE CONSTRAINT 
             BETWEEN THIS NODE AND THE MAIN SURFACE WITH NODE 2587 INSTANCE 
             BOX-1 IS REMOVED.  CHECK IF THIS IS ACCEPTABLE.

 ***WARNING: OVERCONSTRAINT CHECKS: NODE 281 INSTANCE BOOM_1-2 IS USED MORE 
             THAN ONCE AS A SECONDARY NODE IN THE *TIE KEYWORD.  THE CONSTRAINT 
             BETWEEN THIS NODE AND THE MAIN SURFACE WITH NODE 2587 INSTANCE 
             BOX-1 IS REMOVED.  CHECK IF THIS IS ACCEPTABLE.

 ***WARNING: OVERCONSTRAINT CHECKS: NODE 282 INSTANCE BOOM_1-2 IS USED MORE 
             THAN ONCE AS A SECONDARY NODE IN THE *TIE KEYWORD.  THE CONSTRAINT 
             BETWEEN THIS NODE AND THE MAIN SURFACE WITH NODE 2587 INSTANCE 
             BOX-1 IS REMOVED.  CHECK IF THIS IS ACCEPTABLE.

 ***WARNING: OVERCONSTRAINT CHECKS: NODE 282 INSTANCE BOOM_1-2 IS USED MORE 
             THAN ONCE AS A SECONDARY NODE IN THE *TIE KEYWORD.  THE CONSTRAINT 
             BETWEEN THIS NODE AND THE MAIN SURFACE WITH NODE 2587 INSTANCE 
             BOX-1 IS REMOVED.  CHECK IF THIS IS ACCEPTABLE.

 ***WARNING: OVERCONSTRAINT CHECKS: NODE 283 INSTANCE BOOM_1-2 IS USED MORE 
             THAN ONCE AS A SECONDARY NODE IN THE *TIE KEYWORD.  THE CONSTRAINT 
             BETWEEN THIS NODE AND THE MAIN SURFACE WITH NODE 66 INSTANCE BOX-1 
             IS REMOVED.  CHECK IF THIS IS ACCEPTABLE.

 ***WARNING: OVERCONSTRAINT CHECKS: NODE 283 INSTANCE BOOM_1-2 IS USED MORE 
             THAN ONCE AS A SECONDARY NODE IN THE *TIE KEYWORD.  THE CONSTRAINT 
             BETWEEN THIS NODE AND THE MAIN SURFACE WITH NODE 66 INSTANCE BOX-1 
             IS REMOVED.  CHECK IF THIS IS ACCEPTABLE.

 ***WARNING: OVERCONSTRAINT CHECKS: NODE 284 INSTANCE BOOM_1-2 IS USED MORE 
             THAN ONCE AS A SECONDARY NODE IN THE *TIE KEYWORD.  THE CONSTRAINT 
             BETWEEN THIS NODE AND THE MAIN SURFACE WITH NODE 66 INSTANCE BOX-1 
             IS REMOVED.  CHECK IF THIS IS ACCEPTABLE.

 ***WARNING: OVERCONSTRAINT CHECKS: NODE 284 INSTANCE BOOM_1-2 IS USED MORE 
             THAN ONCE AS A SECONDARY NODE IN THE *TIE KEYWORD.  THE CONSTRAINT 
             BETWEEN THIS NODE AND THE MAIN SURFACE WITH NODE 66 INSTANCE BOX-1 
             IS REMOVED.  CHECK IF THIS IS ACCEPTABLE.
  *surface, type=ELEMENT, name=ASSEMBLY_M_SURF-1
  *surface, type=ELEMENT, name=ASSEMBLY_M_SURF-2
  *surface, type=ELEMENT, name=ASSEMBLY_M_SURF-3
  *surface, type=ELEMENT, name=ASSEMBLY_M_SURF-4
  *surface, type=NODE, name=ASSEMBLY_BOOM1_CNS_
  *surface, type=NODE, name=ASSEMBLY_BOOM_2-1_BOOM_2_CNS_

 ***NOTE: DUE TO EXCESSIVE REPORTING, THE ECHO OF THE *SURFACE OPTION IS BEING 
          SUPPRESSED.
  *tie, name=ASSEMBLY_CONSTRAINT-1, adjust=YES
  *tie, name=ASSEMBLY_CONSTRAINT-2, adjust=YES
  *tie, name=ASSEMBLY_CONSTRAINT-3, adjust=YES
  *tie, name=ASSEMBLY_CONSTRAINT-4, adjust=YES
  *tie, name=ASSEMBLY_CONSTRAINT-5, adjust=YES
  *tie, name=ASSEMBLY_CONSTRAINT-6, adjust=YES
  *tie, name=ASSEMBLY_CONSTRAINT-7, adjust=YES
  *tie, name=ASSEMBLY_CONSTRAINT-8, adjust=YES
  *tie, name=ASSEMBLY_CONSTRAINT-9, adjust=YES
  *tie, name=ASSEMBLY_CONSTRAINT-10, adjust=YES
  *output, field, variable=PRESELECT
  *output, history, variable=PRESELECT

 ***WARNING: 1158 nodes are used more than once as a secondary node in *TIE 
             keyword. One of the *TIE constraints at each of these nodes have 
             been removed. The nodes have been identified in node set 
             WarnNodeOverconTieSecondary.
  *output, field, variable=PRESELECT
  *output, history, variable=PRESELECT
  *output, field, variable=PRESELECT
  *output, history, variable=PRESELECT
  *Step, name=loading, nlgeom=NO
  *output, field, variable=PRESELECT
  *output, history, variable=PRESELECT
  *Step, name=loading, nlgeom=NO
  *Step, name=loading, nlgeom=NO
  load                                                                            
  *static
  *boundary
  *output, field, variable=PRESELECT
  *output, history, variable=PRESELECT
  *endstep
  *Step, name=loading, nlgeom=NO
  *static
  *boundary
  *cload
  *cload
  *cload
  *cload
  *cload
  *cload
  *cload
  *cload
  *cload
  *cload
  *cload
  *endstep



                            P R O B L E M   S I Z E


          NUMBER OF ELEMENTS IS                                 34883
          NUMBER OF NODES IS                                    37460
          NUMBER OF NODES DEFINED BY THE USER                   34008
          NUMBER OF INTERNAL NODES GENERATED BY THE PROGRAM      3452
          TOTAL NUMBER OF VARIABLES IN THE MODEL               204048
          (DEGREES OF FREEDOM PLUS MAX NO. OF ANY LAGRANGE MULTIPLIER
           VARIABLES. INCLUDE *PRINT,SOLVE=YES TO GET THE ACTUAL NUMBER.)



                              END OF USER INPUT PROCESSING



     JOB TIME SUMMARY
       USER TIME (SEC)      =   1.1000    
       SYSTEM TIME (SEC)    =  0.20000    
       TOTAL CPU TIME (SEC) =   1.3000    
       WALLCLOCK TIME (SEC) =          3
1

   Abaqus 2022                                  Date 15-Mar-2024   Time 12:59:21
   For use by INDIAN INSTITUTE OF TECHNOLOGY _ KANPUR under license from Dassault Systemes or its subsidiary.

                                                                                               STEP    1  INCREMENT    1
     load                                                                                 TIME COMPLETED IN THIS STEP   0.00    


                        S T E P       1     S T A T I C   A N A L Y S I S


          load                                                                            

     AUTOMATIC TIME CONTROL WITH -
          A SUGGESTED INITIAL TIME INCREMENT OF                 1.00    
          AND A TOTAL TIME PERIOD OF                            1.00    
          THE MINIMUM TIME INCREMENT ALLOWED IS                1.000E-05
          THE MAXIMUM TIME INCREMENT ALLOWED IS                 1.00    

     LINEAR EQUATION SOLVER TYPE         DIRECT SPARSE
  
                   M E M O R Y   E S T I M A T E
  
 PROCESS      FLOATING PT       MINIMUM MEMORY        MEMORY TO
              OPERATIONS           REQUIRED          MINIMIZE I/O
             PER ITERATION           (MB)               (MB)
  
     1          5.01E+10              117                827
  
 NOTE:
      (1) SINCE ABAQUS DOES NOT PRE-ALLOCATE MEMORY AND ONLY ALLOCATES MEMORY AS NEEDED DURING THE ANALYSIS,
          THE MEMORY REQUIREMENT PRINTED HERE CAN ONLY BE VIEWED AS A GENERAL GUIDELINE BASED ON THE BEST
          KNOWLEDGE AVAILABLE AT THE BEGINNING OF A STEP BEFORE THE SOLUTION PROCESS HAS BEGUN.
      (2) THE ESTIMATE IS NORMALLY UPDATED AT THE BEGINNING OF EVERY STEP. IT IS THE MAXIMUM VALUE OF THE
          ESTIMATE FROM THE CURRENT STEP TO THE LAST STEP OF THE ANALYSIS, WITH UNSYMMETRIC SOLUTION TAKEN
          INTO ACCOUNT IF APPLICABLE. 
      (3) SINCE THE ESTIMATE IS BASED ON THE ACTIVE DEGREES OF FREEDOM IN THE FIRST ITERATION OF THE 
          CURRENT STEP, THE MEMORY ESTIMATE MIGHT BE SIGNIFICANTLY DIFFERENT THAN ACTUAL USAGE FOR 
          PROBLEMS WITH SUBSTANTIAL CHANGES IN ACTIVE DEGREES OF FREEDOM BETWEEN STEPS (OR EVEN WITHIN
          THE SAME STEP). EXAMPLES ARE: PROBLEMS WITH SIGNIFICANT CONTACT CHANGES, PROBLEMS WITH MODEL
          CHANGE, PROBLEMS WITH BOTH STATIC STEP AND STEADY STATE DYNAMIC PROCEDURES WHERE ACOUSTIC 
          ELEMENTS WILL ONLY BE ACTIVATED IN THE STEADY STATE DYNAMIC STEPS.
      (4) FOR MULTI-PROCESS EXECUTION, THE ESTIMATED VALUE OF FLOATING POINT OPERATIONS FOR EACH PROCESS
          IS BASED ON AN INITIAL SCHEDULING OF OPERATIONS AND MIGHT NOT REFLECT THE ACTUAL FLOATING 
          POINT OPERATIONS COMPLETED ON EACH PROCESS. OPERATIONS ARE DYNAMICALLY BALANCED DURING EXECUTION, 
          SO THE ACTUAL BALANCE OF OPERATIONS BETWEEN PROCESSES IS EXPECTED TO BE BETTER THAN THE ESTIMATE
          PRINTED HERE.
      (5) THE UPPER LIMIT OF MEMORY THAT CAN BE ALLOCATED BY ABAQUS WILL IN GENERAL DEPEND ON THE VALUE OF
          THE "MEMORY" PARAMETER AND THE AMOUNT OF PHYSICAL MEMORY AVAILABLE ON THE MACHINE. PLEASE SEE
          THE "ABAQUS ANALYSIS USER'S MANUAL" FOR MORE DETAILS. THE ACTUAL USAGE OF MEMORY AND OF DISK
          SPACE FOR SCRATCH DATA WILL DEPEND ON THIS UPPER LIMIT AS WELL AS THE MEMORY REQUIRED TO MINIMIZE
          I/O. IF THE MEMORY UPPER LIMIT IS GREATER THAN THE MEMORY REQUIRED TO MINIMIZE I/O, THEN THE ACTUAL
          MEMORY USAGE WILL BE CLOSE TO THE ESTIMATED "MEMORY TO MINIMIZE I/O" VALUE, AND THE SCRATCH DISK
          USAGE WILL BE CLOSE-TO-ZERO; OTHERWISE, THE ACTUAL MEMORY USED WILL BE CLOSE TO THE PREVIOUSLY
          MENTIONED MEMORY LIMIT, AND THE SCRATCH DISK USAGE WILL BE ROUGHLY PROPORTIONAL TO THE DIFFERENCE
          BETWEEN THE ESTIMATED "MEMORY TO MINIMIZE I/O" AND THE MEMORY UPPER LIMIT. HOWEVER ACCURATE
          ESTIMATE OF THE SCRATCH DISK SPACE IS NOT POSSIBLE.
      (6) USING "*RESTART, WRITE" CAN GENERATE A LARGE AMOUNT OF DATA WRITTEN IN THE WORK DIRECTORY.


          THE ANALYSIS HAS BEEN COMPLETED



                              ANALYSIS COMPLETE
                              WITH   2337 WARNING MESSAGES ON THE DAT FILE



     JOB TIME SUMMARY
       USER TIME (SEC)      =   4.8000    
       SYSTEM TIME (SEC)    =  0.40000    
       TOTAL CPU TIME (SEC) =   5.2000    
       WALLCLOCK TIME (SEC) =          7
