*Heading
** Job name: Job_fin Model name: Model-1
** Generated by: Abaqus/CAE 2022
*Preprint, echo=NO, model=NO, history=NO, contact=NO
**
** PARTS
**
*Part, name=boom_1
*Node
      1,           0.,           0.,           0.
      2,   5.00433302,           0.,           0.
      3,    10.008666,           0.,           0.
      4,   15.0129986,           0.,           0.
      5,   20.0173321,           0.,           0.
      6,   25.0216656,           0.,           0.
      7,   30.0259972,           0.,           0.
      8,   35.0303307,           0.,           0.
      9,   40.0346642,           0.,           0.
     10,   45.0389977,           0.,           0.
     11,   50.0433311,           0.,           0.
     12,   55.0476608,           0.,           0.
     13,   60.0519943,           0.,           0.
     14,   65.0563278,           0.,           0.
     15,   70.0606613,           0.,           0.
     16,   75.0649948,           0.,           0.
     17,   80.0693283,           0.,           0.
     18,   85.0736618,           0.,           0.
     19,   90.0779953,           0.,           0.
     20,   95.0823288,           0.,           0.
** ... 264 like lines cut
*Element, type=B31
  1,   1,   2
  2,   2,   3
  3,   3,   4
  4,   4,   5
  5,   5,   6
  6,   6,   7
  7,   7,   8
  8,   8,   9
  9,   9,  10
 10,  10,  11
 11,  11,  12
 12,  12,  13
 13,  13,  14
 14,  14,  15
 15,  15,  16
 16,  16,  17
 17,  17,  18
 18,  18,  19
 19,  19,  20
 20,  20,  21
** ... 263 like lines cut
*Nset, nset=boom1, generate
   1,  284,    1
*Elset, elset=boom1, generate
   1,  283,    1
*Nset, nset=Set-4, generate
   1,  284,    1
*Elset, elset=Set-4, generate
   1,  283,    1
*Orientation, name=Ori-2
1., 0., 0., 0., 1., 0.
1, 0.
** Section: Section_boom  Profile: profile
*Beam Section, elset=boom1, material=Aluminium_beam, temperature=GRADIENTS, section=CIRC
13.8198
0.,0.,-1.
*End Part
**  
*Part, name=boom_2
*Node
      1,           0.,           0.,           0.
      2,   4.99370909,           0.,           0.
      3,   9.98741817,           0.,           0.
      4,   14.9811268,           0.,           0.
      5,   19.9748363,           0.,           0.
      6,    24.968544,           0.,           0.
      7,   29.9622536,           0.,           0.
      8,   34.9559631,           0.,           0.
      9,   39.9496727,           0.,           0.
     10,   44.9433823,           0.,           0.
     11,    49.937088,           0.,           0.
     12,   54.9307976,           0.,           0.
     13,   59.9245071,           0.,           0.
     14,   64.9182205,           0.,           0.
     15,   69.9119263,           0.,           0.
     16,    74.905632,           0.,           0.
     17,   79.8993454,           0.,           0.
     18,   84.8930511,           0.,           0.
     19,   89.8867645,           0.,           0.
     20,   94.8804703,           0.,           0.
** ... 275 like lines cut
*Element, type=B31
  1,   1,   2
  2,   2,   3
  3,   3,   4
  4,   4,   5
  5,   5,   6
  6,   6,   7
  7,   7,   8
  8,   8,   9
  9,   9,  10
 10,  10,  11
 11,  11,  12
 12,  12,  13
 13,  13,  14
 14,  14,  15
 15,  15,  16
 16,  16,  17
 17,  17,  18
 18,  18,  19
 19,  19,  20
 20,  20,  21
** ... 274 like lines cut
*Nset, nset=boom_2, generate
   1,  295,    1
*Elset, elset=boom_2, generate
   1,  294,    1
*Nset, nset=Set-5, generate
   1,  295,    1
*Elset, elset=Set-5, generate
   1,  294,    1
*Orientation, name=Ori-3
1., 0., 0., 0., 1., 0.
1, 0.
** Section: Section_boom  Profile: profile
*Beam Section, elset=boom_2, material=Aluminium_beam, temperature=GRADIENTS, section=CIRC
13.8198
0.,0.,-1.
*End Part
**  
*Part, name=boom_mid
*Node
      1,           0.,           0.,           0.
      2,    4.9978466,           0.,           0.
      3,   9.99569321,           0.,           0.
      4,   14.9935398,           0.,           0.
      5,   19.9913864,           0.,           0.
      6,    24.989233,           0.,           0.
      7,   29.9870796,           0.,           0.
      8,   34.9849243,           0.,           0.
      9,   39.9827728,           0.,           0.
     10,   44.9806175,           0.,           0.
     11,    49.978466,           0.,           0.
     12,   54.9763107,           0.,           0.
     13,   59.9741592,           0.,           0.
     14,   64.9720078,           0.,           0.
     15,   69.9698486,           0.,           0.
     16,   74.9676971,           0.,           0.
     17,   79.9655457,           0.,           0.
     18,   84.9633942,           0.,           0.
     19,    89.961235,           0.,           0.
     20,   94.9590836,           0.,           0.
** ... 267 like lines cut
*Element, type=B31
  1,   1,   2
  2,   2,   3
  3,   3,   4
  4,   4,   5
  5,   5,   6
  6,   6,   7
  7,   7,   8
  8,   8,   9
  9,   9,  10
 10,  10,  11
 11,  11,  12
 12,  12,  13
 13,  13,  14
 14,  14,  15
 15,  15,  16
 16,  16,  17
 17,  17,  18
 18,  18,  19
 19,  19,  20
 20,  20,  21
** ... 266 like lines cut
*Nset, nset=boom_mid, generate
   1,  287,    1
*Elset, elset=boom_mid, generate
   1,  286,    1
*Nset, nset=boommid, generate
   1,  287,    1
*Elset, elset=boommid, generate
   1,  286,    1
** Section: Section_boom  Profile: profile
*Beam Section, elset=boom_mid, material=Aluminium_beam, temperature=GRADIENTS, section=CIRC
13.8198
0.,0.,-1.
*End Part
**  
*Part, name=box
*Node
      1,  -196.843796,  -25.7499161,        1260.
      2,  -196.843796,   25.7499161,        1260.
      3,  -175.526001,   22.9612503,        1416.
      4,  -175.526001,  -22.9612503,        1416.
      5,  -215.975159,  -28.2525635,        1120.
      6,  -215.975159,   28.2525635,        1120.
      7,  -235.106506,  -30.7552128,         980.
      8,  -235.106506,   30.7552128,         980.
      9,  -254.237869,  -33.2578583,         840.
     10,  -254.237869,   33.2578583,         840.
     11,  -273.369232,  -35.7605095,         700.
     12,  -273.369232,   35.7605095,         700.
     13,   -292.50058,  -38.2631569,         560.
     14,   -292.50058,   38.2631569,         560.
     15,  -311.631927,  -40.7658043,         420.
     16,  -311.631927,   40.7658043,         420.
     17,  -330.763275,  -43.2684517,         280.
     18,  -330.763275,   43.2684517,         280.
     19,  -349.894653,  -45.7711029,         140.
     20,  -349.894653,   45.7711029,         140.
** ... 32256 like lines cut
*Element, type=S4R
  1,    1,   69, 2661,  122
  2,   69,   70, 2662, 2661
  3,   70,   71, 2663, 2662
  4,   71,   72, 2664, 2663
  5,   72,   73, 2665, 2664
  6,   73,   74, 2666, 2665
  7,   74,   75, 2667, 2666
  8,   75,   76, 2668, 2667
  9,   76,    2,   77, 2668
 10,  122, 2661, 2669,  121
 11, 2661, 2662, 2670, 2669
 12, 2662, 2663, 2671, 2670
 13, 2663, 2664, 2672, 2671
 14, 2664, 2665, 2673, 2672
 15, 2665, 2666, 2674, 2673
 16, 2666, 2667, 2675, 2674
 17, 2667, 2668, 2676, 2675
 18, 2668,   77,   78, 2676
 19,  121, 2669, 2677,  120
 20, 2669, 2670, 2678, 2677
** ... 33137 like lines cut
*Nset, nset=all, generate
     1,  32276,      1
*Elset, elset=all, generate
     1,  33157,      1
** Section: Section_box
*Shell Section, elset=all, material=Aluminium_box
0.0287297, 5
*End Part
**  
**
** ASSEMBLY
**
*Assembly, name=Assembly
**  
*Instance, name=box-1, part=box
*End Instance
**  
*Instance, name=boom_1-1, part=boom_1
          0., 22.9612498805041, 1415.99999984765
          0., 22.9612498805041, 1415.99999984765,           0., 23.961090126834, 1416.01787305116, 90.0000009805755
*End Instance
**  
*Instance, name=boom_1-2, part=boom_1
          0., -48.2737498839996, -3.47889908880461e-07
          0., -48.2737498839996, -3.47889908880461e-07,           0., -49.2735901303295, 0.0178728556213938, 90.0000009805755
*End Instance
**  
*Instance, name=boom_2-1, part=boom_2
-738.051999963041, 48.2737499975826, 1.35230834530375e-07
-738.051999963041, 48.2737499975826, 1.35230834530375e-07, -738.051999963041, 47.2739097635401, -0.0178730678063052, 74.7164010892807
*End Instance
**  
*Instance, name=boom_2-2, part=boom_2
-351.051999906948, -22.9612499939138, 1416.00000034047
-351.051999906948, -22.9612499939138, 1416.00000034047, -351.051999906948, -21.9614097162015, 1415.98212713596, 105.283601380397
*End Instance
**  
*Instance, name=boom_mid-1, part=boom_mid
-369.026000289283, 48.2737498052841, -7.0410692387668e-08
-369.026000289283, 48.2737498052841, -7.0410692387668e-08, -369.026000289283, 47.2739095390421, -0.0178732741065248, 82.2198105166874
*End Instance
**  
*Instance, name=boom_mid-2, part=boom_mid
-369.026000289283, -48.2737498052841, -7.0410692387668e-08
-369.026000289283, -48.2737498052841, -7.0410692387668e-08, -369.026000289283, -49.2735900715261, 0.01787313328514, 82.2198105166874
*End Instance
**  
*Nset, nset=F1, instance=boom_mid-1
 1,
*Nset, nset=F2, instance=box-1
 20,
*Nset, nset=F3, instance=box-1
 18,
*Nset, nset=F4, instance=box-1
 16,
*Nset, nset=F5, instance=box-1
 14,
*Nset, nset=F6, instance=box-1
 12,
*Nset, nset=F7, instance=box-1
 10,
*Nset, nset=F8, instance=box-1
 8,
*Nset, nset=F9, instance=box-1
 6,
*Nset, nset=F10, instance=box-1
 2,
*Nset, nset=F11, instance=boom_mid-1
 287,
*Nset, nset=Set-4, instance=box-1
     2,     3,     6,     8,    10,    12,    14,    16,    18,    20,    22,    25,    26,    27,    30,    31
    34,    35,    38,    39,    42,    43,    46,    47,    50,    51,    54,    55,    56,    57,    62,    64
    68,    77,    78,    79,    80,    81,    82,    83,    84,    85,    86,    87,    88,    89,    90,    91
    92,    93,    94,    95,   131,   132,   133,   134,   135,   136,   137,   138,   139,   140,   141,   142
   143,   144,   145,   146,   147,   173,   174,   175,   176,   177,   178,   179,   180,   181,   182,   183
   184,   185,   186,   187,   188,   189,   215,   216,   217,   218,   219,   220,   221,   222,   223,   224
   225,   226,   227,   228,   229,   230,   231,   257,   258,   259,   260,   261,   262,   263,   264,   265
   266,   267,   268,   269,   270,   271,   272,   273,   299,   300,   301,   302,   303,   304,   305,   306
   307,   308,   309,   310,   311,   312,   313,   314,   315,   341,   342,   343,   344,   345,   346,   347
   348,   349,   350,   351,   352,   353,   354,   355,   356,   357,   383,   384,   385,   386,   387,   388
   389,   390,   391,   392,   393,   394,   395,   396,   397,   398,   399,   425,   426,   427,   428,   429
   430,   431,   432,   433,   434,   435,   436,   437,   438,   439,   440,   441,   484,   485,   486,   487
   488,   489,   490,   491,   492,   493,   494,   495,   496,   497,   498,   499,   500,   576,   577,   578
   579,   580,   581,   582,   583,   584,   585,   586,   587,   588,   589,   590,   591,   592,   593,   594
   595,   596,   597,   598,   599,   600,   601,   602,   603,   604,   605,   606,   607,   608,   609,   610
   611,   612,   613,   614,   615,   616,   617,   618,   619,   620,   621,   622,   623,   624,   625,   626
   627,   628,   629,   630,   631,   632,   633,   634,   635,   636,   637,   638,   639,   640,   641,   642
   643,   644,   645,   646,   647,   648,   649,   650,   651,   652,   653,   654,   655,   656,   657,   658
   659,   660,   661,   662,   663,   664,   665,   666,   667,   668,   669,   670,   671,   672,   673,   674
   675,   676,   677,   678,   679,   680,   765,   766,   767,   768,   769,   770,   771,   772,   773,   774
** ... 690 like lines cut
*Elset, elset=Set-4, instance=box-1
  2179,  2180,  2181,  2182,  2183,  2184,  2185,  2186,  2187,  2188,  2189,  2190,  2191,  2192,  2193,  2194
  2195,  2196,  2197,  2198,  2199,  2200,  2201,  2202,  2203,  2204,  2205,  2206,  2207,  2208,  2209,  2210
  2211,  2212,  2213,  2214,  2215,  2216,  2217,  2218,  2219,  2220,  2221,  2222,  2223,  2224,  2225,  2226
  2227,  2228,  2229,  2230,  2231,  2232,  2233,  2234,  2235,  2236,  2237,  2238,  2239,  2240,  2241,  2242
  2243,  2244,  2245,  2246,  2247,  2248,  2249,  2250,  2251,  2252,  2253,  2254,  2255,  2256,  2257,  2258
  2259,  2260,  2261,  2262,  2263,  2264,  2265,  2266,  2267,  2268,  2269,  2270,  2271,  2272,  2273,  2274
  2275,  2276,  2277,  2278,  2279,  2280,  2281,  2282,  2283,  2284,  2285,  2286,  2287,  2288,  2289,  2290
  2291,  2292,  2293,  2294,  2295,  2296,  2297,  2298,  2299,  2300,  2301,  2302,  2303,  2304,  2305,  2306
  2307,  2308,  2309,  2310,  2311,  2312,  2313,  2314,  2315,  2316,  2317,  2318,  2319,  2320,  2321,  2322
  2323,  2324,  2325,  2326,  2327,  2328,  2329,  2330,  2331,  2332,  2333,  2334,  2335,  2336,  2337,  2338
  2339,  2340,  2341,  2342,  2343,  2344,  2345,  2346,  2347,  2348,  2349,  2350,  2351,  2352,  2353,  2354
  2355,  2356,  2357,  2358,  2359,  2360,  2361,  2362,  2363,  2364,  2365,  2366,  2367,  2368,  2369,  2370
  2371,  2372,  2373,  2374,  2375,  2376,  2377,  2378,  2379,  2380,  2381,  2382,  2383,  2384,  2385,  2386
  2387,  2388,  2389,  2390,  2391,  2392,  2393,  2394,  2395,  2396,  2397,  2398,  2399,  2400,  2401,  2402
  2403,  2404,  2405,  2406,  2407,  2408,  2409,  2410,  2411,  2412,  2413,  2414,  2415,  2416,  2417,  2418
  2419,  2420,  2421,  2422,  2423,  2424,  2425,  2426,  2427,  2428,  2429,  2430,  2431,  2432,  2433,  2434
  2435,  2436,  2437,  2438,  2439,  2440,  2441,  2442,  2443,  2444,  2445,  2446,  2447,  2448,  2449,  2450
  2451,  2452,  2453,  2454,  2455,  2456,  2457,  2458,  2459,  2460,  2461,  2462,  2463,  2464,  2465,  2466
  2467,  2468,  2469,  2470,  2471,  2472,  2473,  2474,  2475,  2476,  2477,  2478,  2479,  2480,  2481,  2482
  2483,  2484,  2485,  2486,  2487,  2488,  2489,  2490,  2491,  2492,  2493,  2494,  2495,  2496,  2497,  2498
** ... 674 like lines cut
*Nset, nset=Set-5, instance=box-1
 26,
*Nset, nset=bc_forces, instance=box-1
    21,    22,    24,    26,    63,    64,    65,   476,   477,   478,   479,   480,   481,   482,   483,   547
   548,   549,   550,   551,   552,   553,   554,   555,   556,   557,   558,   559,   560,   561,   562,   563
   564,   565,   566,   567,   568,   569,   570,   571,   572,   573,   574,   575,   622,   623,   624,   625
   626,   627,   628,   629,   630,   631,   632,   633,   634,   635,   636,   637,   638,   639,   640,   641
   642,   643,   644,   645,   646,   647,   648,   649,   650,  2097,  2098,  2099,  2100,  2101,  2102,  2103
  2104,  2105,  2106,  2107,  2108,  2109,  2110,  2111,  2112,  2113,  2114,  2115,  2116,  2117,  2118,  2119
  2120,  2121,  2122,  2123,  2124,  2125,  2126,  2127,  2128,  2129,  2130,  2131,  2132,  2133,  2134,  2135
  2136,  2137,  2138,  2139,  2140,  2141,  2142,  2143,  2144,  2145,  2146,  2147,  2148,  2149,  2150,  2151
  2152,  2153,  2154,  2155,  2156,  2157,  2158,  2159,  2160,  2161,  2162,  2163,  2164,  2551,  2552,  2553
  2554,  2555,  2556,  2557, 16211, 16212, 16213, 16214, 16215, 16216, 16217, 16218, 16219, 16220, 16221, 16222
 16223, 16224, 16225, 16226, 16227, 16228, 16229, 16230, 16231, 16232, 16233, 16234, 16235, 16236, 16237, 16238
 16239, 16240, 16241, 16242, 16243, 16244, 16245, 16246, 16247, 16248, 16249, 16250, 16251, 16252, 16253, 16254
 16255, 16256, 16257, 16258, 16259, 16260, 16261, 16262, 16263, 16264, 16265, 16266, 16267, 16268, 16269, 16270
 16271, 16272, 16273, 16274, 16275, 16276, 16277, 16278, 16279, 16280, 16281, 16282, 16283, 16284, 16285, 16286
 16287, 16288, 16289, 16290, 16291, 16292, 16293, 16294, 16295, 16296, 16297, 16298, 16299, 16300, 16301, 16302
 16303, 16304, 16305, 16306, 16307, 16308, 16309, 16310, 16311, 16312, 16313, 16314, 16315, 16316, 16317, 16318
 16319, 16320, 16321, 16322, 16323, 16324, 16325, 16326, 16327, 16328, 16329, 16330, 16331, 16332, 16333, 16334
 16335, 16336, 16337, 16338, 16339, 16340, 16341, 16342, 16343, 16344, 16345, 16346, 16347, 16348, 16349, 16350
 16351, 16352, 16353, 16354, 16355, 16356, 16357, 16358, 16359, 16360, 16361, 16362, 16363, 16364, 16365, 16366
 16367, 16368, 16369, 16370, 16371, 16372, 16373, 16374, 16375, 16376, 16377, 16378, 16379, 16380, 16381, 16382
** ... 19 like lines cut
*Elset, elset=bc_forces, instance=box-1
 15110, 15111, 15112, 15113, 15114, 15115, 15116, 15117, 15118, 15119, 15120, 15121, 15122, 15123, 15124, 15125
 15126, 15127, 15128, 15129, 15130, 15131, 15132, 15133, 15134, 15135, 15136, 15137, 15138, 15139, 15140, 15141
 15142, 15143, 15144, 15145, 15146, 15147, 15148, 15149, 15150, 15151, 15152, 15153, 15154, 15155, 15156, 15157
 15158, 15159, 15160, 15161, 15162, 15163, 15164, 15165, 15166, 15167, 15168, 15169, 15170, 15171, 15172, 15173
 15174, 15175, 15176, 15177, 15178, 15179, 15180, 15181, 15182, 15183, 15184, 15185, 15186, 15187, 15188, 15189
 15190, 15191, 15192, 15193, 15194, 15195, 15196, 15197, 15198, 15199, 15200, 15201, 15202, 15203, 15204, 15205
 15206, 15207, 15208, 15209, 15210, 15211, 15212, 15213, 15214, 15215, 15216, 15217, 15218, 15219, 15220, 15221
 15222, 15223, 15224, 15225, 15226, 15227, 15228, 15229, 15230, 15231, 15232, 15233, 15234, 15235, 15236, 15237
 15238, 15239, 15240, 15241, 15242, 15243, 15244, 15245, 15246, 15247, 15248, 15249, 15250, 15251, 15252, 15253
 15254, 15255, 15256, 15257, 15258, 15259, 15260, 15261, 15262, 15263, 15264, 15265, 15266, 15267, 15268, 15269
 15270, 15271, 15272, 15273, 15274, 15275, 15276, 15277, 15278, 15279, 15280, 15281, 15282, 15283, 15284, 15285
 15286, 15287, 15288, 15289, 15290, 15291, 15292, 15293, 15294, 15295, 15296, 15297, 15298, 15299, 15300, 15301
 15302, 15303, 15304, 15305, 15306, 15307, 15308, 15309, 15310, 15311, 15312, 15313, 15314, 15315, 15316, 15317
 15318, 15319, 15320, 15321, 15322, 15323, 15324, 15325, 15326, 15327, 15328, 15329, 15330, 15331, 15332, 15333
 15334, 15335, 15336, 15337, 15338, 15339, 15340, 15341, 15342, 15343, 15344, 15345, 15346, 15347, 15348, 15349
 15350, 15351, 15352, 15353, 15354, 15355, 15356, 15357, 15358, 15359, 15360, 15361, 15362, 15363, 15364, 15365
 15366, 15367, 15368, 15369, 15370, 15371, 15372, 15373, 15374, 15375, 15376, 15377, 15378, 15379, 15380, 15381
 15382, 15383, 15384, 15385, 15386, 15387, 15388, 31058, 31059, 31060, 31061, 31062, 31063, 31064, 31065, 31066
 31067, 31068, 31069, 31070, 31071, 31072, 31073, 31074, 31075, 31076, 31077, 31078, 31079, 31080, 31081, 31082
 31083, 31084, 31085, 31086, 31087, 31088, 31089, 31090, 31091, 31092, 31093, 31094, 31095, 31096, 31097, 31098
** ... 15 like lines cut
*Nset, nset=boom1, instance=boom_1-1, generate
   1,  284,    1
*Elset, elset=boom1, instance=boom_1-1, generate
   1,  283,    1
*Nset, nset=surface, instance=box-1
     2,     3,     6,     8,    10,    12,    14,    16,    18,    20,    22,    25,    26,    27,    30,    31
    34,    35,    38,    39,    42,    43,    46,    47,    50,    51,    54,    55,    56,    57,    62,    64
    68,    77,    78,    79,    80,    81,    82,    83,    84,    85,    86,    87,    88,    89,    90,    91
    92,    93,    94,    95,   131,   132,   133,   134,   135,   136,   137,   138,   139,   140,   141,   142
   143,   144,   145,   146,   147,   173,   174,   175,   176,   177,   178,   179,   180,   181,   182,   183
   184,   185,   186,   187,   188,   189,   215,   216,   217,   218,   219,   220,   221,   222,   223,   224
   225,   226,   227,   228,   229,   230,   231,   257,   258,   259,   260,   261,   262,   263,   264,   265
   266,   267,   268,   269,   270,   271,   272,   273,   299,   300,   301,   302,   303,   304,   305,   306
   307,   308,   309,   310,   311,   312,   313,   314,   315,   341,   342,   343,   344,   345,   346,   347
   348,   349,   350,   351,   352,   353,   354,   355,   356,   357,   383,   384,   385,   386,   387,   388
   389,   390,   391,   392,   393,   394,   395,   396,   397,   398,   399,   425,   426,   427,   428,   429
   430,   431,   432,   433,   434,   435,   436,   437,   438,   439,   440,   441,   484,   485,   486,   487
   488,   489,   490,   491,   492,   493,   494,   495,   496,   497,   498,   499,   500,   576,   577,   578
   579,   580,   581,   582,   583,   584,   585,   586,   587,   588,   589,   590,   591,   592,   593,   594
   595,   596,   597,   598,   599,   600,   601,   602,   603,   604,   605,   606,   607,   608,   609,   610
   611,   612,   613,   614,   615,   616,   617,   618,   619,   620,   621,   622,   623,   624,   625,   626
   627,   628,   629,   630,   631,   632,   633,   634,   635,   636,   637,   638,   639,   640,   641,   642
   643,   644,   645,   646,   647,   648,   649,   650,   651,   652,   653,   654,   655,   656,   657,   658
   659,   660,   661,   662,   663,   664,   665,   666,   667,   668,   669,   670,   671,   672,   673,   674
   675,   676,   677,   678,   679,   680,   765,   766,   767,   768,   769,   770,   771,   772,   773,   774
** ... 690 like lines cut
*Elset, elset=surface, instance=box-1
  2179,  2180,  2181,  2182,  2183,  2184,  2185,  2186,  2187,  2188,  2189,  2190,  2191,  2192,  2193,  2194
  2195,  2196,  2197,  2198,  2199,  2200,  2201,  2202,  2203,  2204,  2205,  2206,  2207,  2208,  2209,  2210
  2211,  2212,  2213,  2214,  2215,  2216,  2217,  2218,  2219,  2220,  2221,  2222,  2223,  2224,  2225,  2226
  2227,  2228,  2229,  2230,  2231,  2232,  2233,  2234,  2235,  2236,  2237,  2238,  2239,  2240,  2241,  2242
  2243,  2244,  2245,  2246,  2247,  2248,  2249,  2250,  2251,  2252,  2253,  2254,  2255,  2256,  2257,  2258
  2259,  2260,  2261,  2262,  2263,  2264,  2265,  2266,  2267,  2268,  2269,  2270,  2271,  2272,  2273,  2274
  2275,  2276,  2277,  2278,  2279,  2280,  2281,  2282,  2283,  2284,  2285,  2286,  2287,  2288,  2289,  2290
  2291,  2292,  2293,  2294,  2295,  2296,  2297,  2298,  2299,  2300,  2301,  2302,  2303,  2304,  2305,  2306
  2307,  2308,  2309,  2310,  2311,  2312,  2313,  2314,  2315,  2316,  2317,  2318,  2319,  2320,  2321,  2322
  2323,  2324,  2325,  2326,  2327,  2328,  2329,  2330,  2331,  2332,  2333,  2334,  2335,  2336,  2337,  2338
  2339,  2340,  2341,  2342,  2343,  2344,  2345,  2346,  2347,  2348,  2349,  2350,  2351,  2352,  2353,  2354
  2355,  2356,  2357,  2358,  2359,  2360,  2361,  2362,  2363,  2364,  2365,  2366,  2367,  2368,  2369,  2370
  2371,  2372,  2373,  2374,  2375,  2376,  2377,  2378,  2379,  2380,  2381,  2382,  2383,  2384,  2385,  2386
  2387,  2388,  2389,  2390,  2391,  2392,  2393,  2394,  2395,  2396,  2397,  2398,  2399,  2400,  2401,  2402
  2403,  2404,  2405,  2406,  2407,  2408,  2409,  2410,  2411,  2412,  2413,  2414,  2415,  2416,  2417,  2418
  2419,  2420,  2421,  2422,  2423,  2424,  2425,  2426,  2427,  2428,  2429,  2430,  2431,  2432,  2433,  2434
  2435,  2436,  2437,  2438,  2439,  2440,  2441,  2442,  2443,  2444,  2445,  2446,  2447,  2448,  2449,  2450
  2451,  2452,  2453,  2454,  2455,  2456,  2457,  2458,  2459,  2460,  2461,  2462,  2463,  2464,  2465,  2466
  2467,  2468,  2469,  2470,  2471,  2472,  2473,  2474,  2475,  2476,  2477,  2478,  2479,  2480,  2481,  2482
  2483,  2484,  2485,  2486,  2487,  2488,  2489,  2490,  2491,  2492,  2493,  2494,  2495,  2496,  2497,  2498
** ... 674 like lines cut
*Elset, elset=_m_Surf-1_SPOS, internal, instance=box-1
  2179,  2180,  2181,  2182,  2183,  2184,  2185,  2186,  2187,  2188,  2189,  2190,  2191,  2192,  2193,  2194
  2195,  2196,  2197,  2198,  2199,  2200,  2201,  2202,  2203,  2204,  2205,  2206,  2207,  2208,  2209,  2210
  2211,  2212,  2213,  2214,  2215,  2216,  2217,  2218,  2219,  2220,  2221,  2222,  2223,  2224,  2225,  2226
  2227,  2228,  2229,  2230,  2231,  2232,  2233,  2234,  2235,  2236,  2237,  2238,  2239,  2240,  2241,  2242
  2243,  2244,  2245,  2246,  2247,  2248,  2249,  2250,  2251,  2252,  2253,  2254,  2255,  2256,  2257,  2258
  2259,  2260,  2261,  2262,  2263,  2264,  2265,  2266,  2267,  2268,  2269,  2270,  2271,  2272,  2273,  2274
  2275,  2276,  2277,  2278,  2279,  2280,  2281,  2282,  2283,  2284,  2285,  2286,  2287,  2288,  2289,  2290
  2291,  2292,  2293,  2294,  2295,  2296,  2297,  2298,  2299,  2300,  2301,  2302,  2303,  2304,  2305,  2306
  2307,  2308,  2309,  2310,  2311,  2312,  2313,  2314,  2315,  2316,  2317,  2318,  2319,  2320,  2321,  2322
  2323,  2324,  2325,  2326,  2327,  2328,  2329,  2330,  2331,  2332,  2333,  2334,  2335,  2336,  2337,  2338
  2339,  2340,  2341,  2342,  2343,  2344,  2345,  2346,  2347,  2348,  2349,  2350,  2351,  2352,  2353,  2354
  2355,  2356,  2357,  2358,  2359,  2360,  2361,  2362,  2363,  2364,  2365,  2366,  2367,  2368,  2369,  2370
  2371,  2372,  2373,  2374,  2375,  2376,  2377,  2378,  2379,  2380,  2381,  2382,  2383,  2384,  2385,  2386
  2387,  2388,  2389,  2390,  2391,  2392,  2393,  2394,  2395,  2396,  2397,  2398,  2399,  2400,  2401,  2402
  2403,  2404,  2405,  2406,  2407,  2408,  2409,  2410,  2411,  2412,  2413,  2414,  2415,  2416,  2417,  2418
  2419,  2420,  2421,  2422,  2423,  2424,  2425,  2426,  2427,  2428,  2429,  2430,  2431,  2432,  2433,  2434
  2435,  2436,  2437,  2438,  2439,  2440,  2441,  2442,  2443,  2444,  2445,  2446,  2447,  2448,  2449,  2450
  2451,  2452,  2453,  2454,  2455,  2456,  2457,  2458,  2459,  2460,  2461,  2462,  2463,  2464,  2465,  2466
  2467,  2468,  2469,  2470,  2471,  2472,  2473,  2474,  2475,  2476,  2477,  2478,  2479,  2480,  2481,  2482
  2483,  2484,  2485,  2486,  2487,  2488,  2489,  2490,  2491,  2492,  2493,  2494,  2495,  2496,  2497,  2498
** ... 674 like lines cut
*Surface, type=ELEMENT, name=m_Surf-1
_m_Surf-1_SPOS, SPOS
*Elset, elset=_m_Surf-2_SPOS, internal, instance=box-1
 28142, 28143, 28144, 28145, 28146, 28147, 28148, 28149, 28150, 28151, 28152, 28153, 28154, 28155, 28156, 28157
 28158, 28159, 28160, 28161, 28162, 28163, 28164, 28165, 28166, 28167, 28168, 28169, 28170, 28171, 28172, 28173
 28174, 28175, 28176, 28177, 28178, 28179, 28180, 28181, 28182, 28183, 28184, 28185, 28186, 28187, 28188, 28189
 28190, 28191, 28192, 28193, 28194, 28195, 28196, 28197, 28198, 28199, 28200, 28201, 28202, 28203, 28204, 28205
 28206, 28207, 28208, 28209, 28210, 28211, 28212, 28213, 28214, 28215, 28216, 28217, 28218, 28219, 28220, 28221
 28222, 28223, 28224, 28225, 28226, 28227, 28228, 28229, 28230, 28231, 28232, 28233, 28234, 28235, 28236, 28237
 28238, 28239, 28240, 28241, 28242, 28243, 28244, 28245, 28246, 28247, 28248, 28249, 28250, 28251, 28252, 28253
 28254, 28255, 28256, 28257, 28258, 28259, 28260, 28261, 28262, 28263, 28264, 28265, 28266, 28267, 28268, 28269
 28270, 28271, 28272, 28273, 28274, 28275, 28276, 28277, 28278, 28279, 28280, 28281, 28282, 28283, 28284, 28285
 28286, 28287, 28288, 28289, 28290, 28291, 28292, 28293, 28294, 28295, 28296, 28297, 28298, 28299, 28300, 28301
 28302, 28303, 28304, 28305, 28306, 28307, 28308, 28309, 28310, 28311, 28312, 28313, 28314, 28315, 28316, 28317
 28318, 28319, 28320, 28321, 28322, 28323, 28324, 28325, 28326, 28327, 28328, 28329, 28330, 28331, 28332, 28333
 28334, 28335, 28336, 28337, 28338, 28339, 28340, 28341, 28342, 28343, 28344, 28345, 28346, 28347, 28348, 28349
 28350, 28351, 28352, 28353, 28354, 28355, 28356, 28357, 28358, 28359, 28360, 28361, 28362, 28363, 28364, 28365
 28366, 28367, 28368, 28369, 28370, 28371, 28372, 28373, 28374, 28375, 28376, 28377, 28378, 28379, 28380, 28381
 28382, 28383, 28384, 28385, 28386, 28387, 28388, 28389, 28390, 28391, 28392, 28393, 28394, 28395, 28396, 28397
 28398, 28399, 28400, 28401, 28402, 28403, 28404, 28405, 28406, 28407, 28408, 28409, 28410, 28411, 28412, 28413
 28414, 28415, 28416, 28417, 28418, 28419, 28420, 28421, 28422, 28423, 28424, 28425, 28426, 28427, 28428, 28429
 28430, 28431, 28432, 28433, 28434, 28435, 28436, 28437, 28438, 28439, 28440, 28441, 28442, 28443, 28444, 28445
 28446, 28447, 28448, 28449, 28450, 28451, 28452, 28453, 28454, 28455, 28456, 28457, 28458, 28459, 28460, 28461
** ... 83 like lines cut
*Surface, type=ELEMENT, name=m_Surf-2
_m_Surf-2_SPOS, SPOS
*Elset, elset=_m_Surf-3_SPOS, internal, instance=box-1
  1639,  1640,  1641,  1642,  1643,  1644,  1645,  1646,  1647,  1648,  1649,  1650,  1651,  1652,  1653,  1654
  1655,  1656,  1657,  1658,  1659,  1660,  1661,  1662,  1663,  1664,  1665,  1666,  1667,  1668,  1669,  1670
  1671,  1672,  1673,  1674,  1675,  1676,  1677,  1678,  1679,  1680,  1681,  1682,  1683,  1684,  1685,  1686
  1687,  1688,  1689,  1690,  1691,  1692,  1693,  1694,  1695,  1696,  1697,  1698,  1699,  1700,  1701,  1702
  1703,  1704,  1705,  1706,  1707,  1708,  1709,  1710,  1711,  1712,  1713,  1714,  1715,  1716,  1717,  1718
  1719,  1720,  1721,  1722,  1723,  1724,  1725,  1726,  1727,  1728,  1729,  1730,  1731,  1732,  1733,  1734
  1735,  1736,  1737,  1738,  1739,  1740,  1741,  1742,  1743,  1744,  1745,  1746,  1747,  1748,  1749,  1750
  1751,  1752,  1753,  1754,  1755,  1756,  1757,  1758,  1759,  1760,  1761,  1762,  1763,  1764,  1765,  1766
  1767,  1768,  1769,  1770,  1771,  1772,  1773,  1774,  1775,  1776,  1777,  1778,  1779,  1780,  1781,  1782
  1783,  1784,  1785,  1786,  1787,  1788,  1789,  1790,  1791,  1792,  1793,  1794,  1795,  1796,  1797,  1798
  1799,  1800,  1801,  1802,  1803,  1804,  1805,  1806,  1807,  1808,  1809,  1810,  1811,  1812,  1813,  1814
  1815,  1816,  1817,  1818,  1819,  1820,  1821,  1822,  1823,  1824,  1825,  1826,  1827,  1828,  1829,  1830
  1831,  1832,  1833,  1834,  1835,  1836,  1837,  1838,  1839,  1840,  1841,  1842,  1843,  1844,  1845,  1846
  1847,  1848,  1849,  1850,  1851,  1852,  1853,  1854,  1855,  1856,  1857,  1858,  1859,  1860,  1861,  1862
  1863,  1864,  1865,  1866,  1867,  1868,  1869,  1870,  1871,  1872,  1873,  1874,  1875,  1876,  1877,  1878
  1879,  1880,  1881,  1882,  1883,  1884,  1885,  1886,  1887,  1888,  1889,  1890,  1891,  1892,  1893,  1894
  1895,  1896,  1897,  1898,  1899,  1900,  1901,  1902,  1903,  1904,  1905,  1906,  1907,  1908,  1909,  1910
  1911,  1912,  1913,  1914,  1915,  1916,  1917,  1918,  1919,  1920,  1921,  1922,  1923,  1924,  1925,  1926
  1927,  1928,  1929,  1930,  1931,  1932,  1933,  1934,  1935,  1936,  1937,  1938,  1939,  1940,  1941,  1942
  1943,  1944,  1945,  1946,  1947,  1948,  1949,  1950,  1951,  1952,  1953,  1954,  1955,  1956,  1957,  1958
** ... 674 like lines cut
*Surface, type=ELEMENT, name=m_Surf-3
_m_Surf-3_SPOS, SPOS
*Elset, elset=_m_Surf-4_SPOS, internal, instance=box-1
 29600, 29601, 29602, 29603, 29604, 29605, 29606, 29607, 29608, 29609, 29610, 29611, 29612, 29613, 29614, 29615
 29616, 29617, 29618, 29619, 29620, 29621, 29622, 29623, 29624, 29625, 29626, 29627, 29628, 29629, 29630, 29631
 29632, 29633, 29634, 29635, 29636, 29637, 29638, 29639, 29640, 29641, 29642, 29643, 29644, 29645, 29646, 29647
 29648, 29649, 29650, 29651, 29652, 29653, 29654, 29655, 29656, 29657, 29658, 29659, 29660, 29661, 29662, 29663
 29664, 29665, 29666, 29667, 29668, 29669, 29670, 29671, 29672, 29673, 29674, 29675, 29676, 29677, 29678, 29679
 29680, 29681, 29682, 29683, 29684, 29685, 29686, 29687, 29688, 29689, 29690, 29691, 29692, 29693, 29694, 29695
 29696, 29697, 29698, 29699, 29700, 29701, 29702, 29703, 29704, 29705, 29706, 29707, 29708, 29709, 29710, 29711
 29712, 29713, 29714, 29715, 29716, 29717, 29718, 29719, 29720, 29721, 29722, 29723, 29724, 29725, 29726, 29727
 29728, 29729, 29730, 29731, 29732, 29733, 29734, 29735, 29736, 29737, 29738, 29739, 29740, 29741, 29742, 29743
 29744, 29745, 29746, 29747, 29748, 29749, 29750, 29751, 29752, 29753, 29754, 29755, 29756, 29757, 29758, 29759
 29760, 29761, 29762, 29763, 29764, 29765, 29766, 29767, 29768, 29769, 29770, 29771, 29772, 29773, 29774, 29775
 29776, 29777, 29778, 29779, 29780, 29781, 29782, 29783, 29784, 29785, 29786, 29787, 29788, 29789, 29790, 29791
 29792, 29793, 29794, 29795, 29796, 29797, 29798, 29799, 29800, 29801, 29802, 29803, 29804, 29805, 29806, 29807
 29808, 29809, 29810, 29811, 29812, 29813, 29814, 29815, 29816, 29817, 29818, 29819, 29820, 29821, 29822, 29823
 29824, 29825, 29826, 29827, 29828, 29829, 29830, 29831, 29832, 29833, 29834, 29835, 29836, 29837, 29838, 29839
 29840, 29841, 29842, 29843, 29844, 29845, 29846, 29847, 29848, 29849, 29850, 29851, 29852, 29853, 29854, 29855
 29856, 29857, 29858, 29859, 29860, 29861, 29862, 29863, 29864, 29865, 29866, 29867, 29868, 29869, 29870, 29871
 29872, 29873, 29874, 29875, 29876, 29877, 29878, 29879, 29880, 29881, 29882, 29883, 29884, 29885, 29886, 29887
 29888, 29889, 29890, 29891, 29892, 29893, 29894, 29895, 29896, 29897, 29898, 29899, 29900, 29901, 29902, 29903
 29904, 29905, 29906, 29907, 29908, 29909, 29910, 29911, 29912, 29913, 29914, 29915, 29916, 29917, 29918, 29919
** ... 83 like lines cut
*Surface, type=ELEMENT, name=m_Surf-4
_m_Surf-4_SPOS, SPOS
*Surface, type=NODE, name=boom1_CNS_, internal
boom1, 1.
*Surface, type=NODE, name=boom_2-1_boom_2_CNS_, internal
boom_2-1.boom_2, 1.
*Surface, type=NODE, name=boom_2-2_boom_2_CNS_, internal
boom_2-2.boom_2, 1.
*Surface, type=NODE, name=boom_1-2_boom1_CNS_, internal
boom_1-2.boom1, 1.
*Surface, type=NODE, name=boom_1-1_boom1_CNS_, internal
boom_1-1.boom1, 1.
*Surface, type=NODE, name=boom_mid-1_boom_mid_CNS_, internal
boom_mid-1.boom_mid, 1.
*Surface, type=NODE, name=boom_mid-2_boom_mid_CNS_, internal
boom_mid-2.boom_mid, 1.
** Constraint: Constraint-1
*Tie, name=Constraint-1, adjust=yes
boom1_CNS_, m_Surf-1
** Constraint: Constraint-2
*Tie, name=Constraint-2, adjust=yes
boom_2-1_boom_2_CNS_, m_Surf-1
** Constraint: Constraint-3
*Tie, name=Constraint-3, adjust=yes
boom_2-2_boom_2_CNS_, m_Surf-2
** Constraint: Constraint-4
*Tie, name=Constraint-4, adjust=yes
boom_2-1_boom_2_CNS_, m_Surf-2
** Constraint: Constraint-5
*Tie, name=Constraint-5, adjust=yes
boom_2-2_boom_2_CNS_, m_Surf-3
** Constraint: Constraint-6
*Tie, name=Constraint-6, adjust=yes
boom_1-2_boom1_CNS_, m_Surf-3
** Constraint: Constraint-7
*Tie, name=Constraint-7, adjust=yes
boom_1-2_boom1_CNS_, m_Surf-4
** Constraint: Constraint-8
*Tie, name=Constraint-8, adjust=yes
boom_1-1_boom1_CNS_, m_Surf-4
** Constraint: Constraint-9
*Tie, name=Constraint-9, adjust=yes
boom_mid-1_boom_mid_CNS_, m_Surf-1
** Constraint: Constraint-10
*Tie, name=Constraint-10, adjust=yes
boom_mid-2_boom_mid_CNS_, m_Surf-3
*End Assembly
** 
** MATERIALS
** 
*Material, name=Aluminium_beam
*Elastic
200000., 0.29
*Material, name=Aluminium_box
*Elastic
210000., 0.3
** ----------------------------------------------------------------
** 
** STEP: loading
** 
*Step, name=loading, nlgeom=NO
load
*Static
1., 1., 1e-05, 1.
** 
** BOUNDARY CONDITIONS
** 
** Name: BC-1 Type: Displacement/Rotation
*Boundary
bc_forces, 1, 1
bc_forces, 2, 2
bc_forces, 3, 3
bc_forces, 4, 4
bc_forces, 5, 5
bc_forces, 6, 6
** 
** LOADS
** 
** Name: F1   Type: Concentrated force
*Cload
F1, 2, 209.974
** Name: F2   Type: Concentrated force
*Cload
F2, 2, 202.063
** Name: F3   Type: Concentrated force
*Cload
F3, 2, 192.695
** Name: F4   Type: Concentrated force
*Cload
F4, 2, 181.773
** Name: F5   Type: Concentrated force
*Cload
F5, 2, 169.132
** Name: F6   Type: Concentrated force
*Cload
F6, 2, 154.497
** Name: F7   Type: Concentrated force
*Cload
F7, 2, 137.405
** Name: F8   Type: Concentrated force
*Cload
F8, 2, 116.983
** Name: F9   Type: Concentrated force
*Cload
F9, 2, 91.2045
** Name: F10   Type: Concentrated force
*Cload
F10, 2, 48.557
** Name: F11   Type: Concentrated force
*Cload
F11, 2, 10.2505
** 
** OUTPUT REQUESTS
** 
*Restart, write, frequency=0
** 
** FIELD OUTPUT: F-Output-1
** 
*Output, field, variable=PRESELECT
** 
** HISTORY OUTPUT: H-Output-1
** 
*Output, history, variable=PRESELECT
*End Step
